Program Version,EnergyPlus, Version 22.1.0-ed759b17ee, YMD=2022.12.12 23:10
! This file shows details about the branches, nodes, and other
! elements of the flow connections.
! This file is intended for use in "debugging" potential problems
! that may also be detected by the program, but may be more easily
! identified by "eye".
! This file is also intended to support software which draws a
! schematic diagram of the HVAC system.
! ===============================================================
! #Nodes,<Number of Unique Nodes>
 #Nodes,454
! <Node>,<NodeNumber>,<Node Name>,<Node Fluid Type>,<# Times Node Referenced After Definition>
 Node,1,100_AUDITORIUM VAV TERMINAL OUTLET AIR NODE,Air,4
 Node,2,100_AUDITORIUM RETURN AIR NODE,Air,2
 Node,3,102_OFFICES VAV TERMINAL OUTLET AIR NODE,Air,4
 Node,4,102_OFFICES RETURN AIR NODE,Air,2
 Node,5,104_STORAGE VAV TERMINAL OUTLET AIR NODE,Air,4
 Node,6,104_STORAGE RETURN AIR NODE,Air,2
 Node,7,108 VAV TERMINAL OUTLET AIR NODE,Air,4
 Node,8,108 RETURN AIR NODE,Air,2
 Node,9,109 VAV TERMINAL OUTLET AIR NODE,Air,4
 Node,10,109 RETURN AIR NODE,Air,2
 Node,11,112_ARC VAV TERMINAL OUTLET AIR NODE,Air,4
 Node,12,112_ARC RETURN AIR NODE,Air,2
 Node,13,113_CAREER_SERVICES VAV TERMINAL OUTLET AIR NODE,Air,4
 Node,14,113_CAREER_SERVICES RETURN AIR NODE,Air,2
 Node,15,114_OFFICES VAV TERMINAL OUTLET AIR NODE,Air,4
 Node,16,114_OFFICES RETURN AIR NODE,Air,2
 Node,17,AUDITORIUMLOWER_0B49D193 VAV TERMINAL OUTLET AIR NODE,Air,4
 Node,18,AUDITORIUMLOWER_0B49D193 RETURN AIR NODE,Air,2
 Node,19,AUDITORIUM_LOBBY VAV TERMINAL OUTLET AIR NODE,Air,4
 Node,20,AUDITORIUM_LOBBY RETURN AIR NODE,Air,2
 Node,21,BOGDINING_E25F401A VAV TERMINAL OUTLET AIR NODE,Air,4
 Node,22,BOGDINING_E25F401A RETURN AIR NODE,Air,2
 Node,23,BOGPLAY_1_B863644B VAV TERMINAL OUTLET AIR NODE,Air,4
 Node,24,BOGPLAY_1_B863644B RETURN AIR NODE,Air,2
 Node,25,BOGPLAY_1_D1F076F9 VAV TERMINAL OUTLET AIR NODE,Air,4
 Node,26,BOGPLAY_1_D1F076F9 RETURN AIR NODE,Air,2
 Node,27,BOGPLAY_2_4B3AE9FE VAV TERMINAL OUTLET AIR NODE,Air,4
 Node,28,BOGPLAY_2_4B3AE9FE RETURN AIR NODE,Air,2
 Node,29,BOGPLAY_2_D145E14C VAV TERMINAL OUTLET AIR NODE,Air,4
 Node,30,BOGPLAY_2_D145E14C RETURN AIR NODE,Air,2
 Node,31,CLASSROOM_1_90B605A9 VAV TERMINAL OUTLET AIR NODE,Air,4
 Node,32,CLASSROOM_1_90B605A9 RETURN AIR NODE,Air,2
 Node,33,CLASSROOM_2_ECCCF8B8 VAV TERMINAL OUTLET AIR NODE,Air,4
 Node,34,CLASSROOM_2_ECCCF8B8 RETURN AIR NODE,Air,2
 Node,35,CORRIDOR_1_FA1FE4C1 VAV TERMINAL OUTLET AIR NODE,Air,4
 Node,36,CORRIDOR_1_FA1FE4C1 RETURN AIR NODE,Air,2
 Node,37,CORRIDOR_2_CFBEC8AA VAV TERMINAL OUTLET AIR NODE,Air,4
 Node,38,CORRIDOR_2_CFBEC8AA RETURN AIR NODE,Air,2
 Node,39,CORRIDOR_3_7621FA0C VAV TERMINAL OUTLET AIR NODE,Air,4
 Node,40,CORRIDOR_3_7621FA0C RETURN AIR NODE,Air,2
 Node,41,CORRIDOR_4_9B747DDD VAV TERMINAL OUTLET AIR NODE,Air,4
 Node,42,CORRIDOR_4_9B747DDD RETURN AIR NODE,Air,2
 Node,43,EAST_CORRIDOR VAV TERMINAL OUTLET AIR NODE,Air,4
 Node,44,EAST_CORRIDOR RETURN AIR NODE,Air,2
 Node,45,EAST_SMALL_CORRIDOR VAV TERMINAL OUTLET AIR NODE,Air,4
 Node,46,EAST_SMALL_CORRIDOR RETURN AIR NODE,Air,2
 Node,47,KITCHEN_1_55B9A759 VAV TERMINAL OUTLET AIR NODE,Air,4
 Node,48,KITCHEN_1_55B9A759 RETURN AIR NODE,Air,2
 Node,49,KITCHEN_2_B940211D VAV TERMINAL OUTLET AIR NODE,Air,4
 Node,50,KITCHEN_2_B940211D RETURN AIR NODE,Air,2
 Node,51,KITCHEN_3_3E9A0FB8 VAV TERMINAL OUTLET AIR NODE,Air,4
 Node,52,KITCHEN_3_3E9A0FB8 RETURN AIR NODE,Air,2
 Node,53,MECH_1_40A96879 VAV TERMINAL OUTLET AIR NODE,Air,4
 Node,54,MECH_1_40A96879 RETURN AIR NODE,Air,2
 Node,55,MECH_2_C6ABCC9A VAV TERMINAL OUTLET AIR NODE,Air,4
 Node,56,MECH_2_C6ABCC9A RETURN AIR NODE,Air,2
 Node,57,MECH_3_6E799E0F VAV TERMINAL OUTLET AIR NODE,Air,4
 Node,58,MECH_3_6E799E0F RETURN AIR NODE,Air,2
 Node,59,MECH_4_99985F88 VAV TERMINAL OUTLET AIR NODE,Air,4
 Node,60,MECH_4_99985F88 RETURN AIR NODE,Air,2
 Node,61,NORTH_HALL VAV TERMINAL OUTLET AIR NODE,Air,4
 Node,62,NORTH_HALL RETURN AIR NODE,Air,2
 Node,63,OFFICE_1_B1424685 VAV TERMINAL OUTLET AIR NODE,Air,4
 Node,64,OFFICE_1_B1424685 RETURN AIR NODE,Air,2
 Node,65,OFFICE_2_37CC8413 VAV TERMINAL OUTLET AIR NODE,Air,4
 Node,66,OFFICE_2_37CC8413 RETURN AIR NODE,Air,2
 Node,67,OFFICE_3_93B2C9FF VAV TERMINAL OUTLET AIR NODE,Air,4
 Node,68,OFFICE_3_93B2C9FF RETURN AIR NODE,Air,2
 Node,69,OFFICE_4_3DD7EBAB VAV TERMINAL OUTLET AIR NODE,Air,4
 Node,70,OFFICE_4_3DD7EBAB RETURN AIR NODE,Air,2
 Node,71,OFFICE_5_682148B2 VAV TERMINAL OUTLET AIR NODE,Air,4
 Node,72,OFFICE_5_682148B2 RETURN AIR NODE,Air,2
 Node,73,OFFICE_6_61DD9104 VAV TERMINAL OUTLET AIR NODE,Air,4
 Node,74,OFFICE_6_61DD9104 RETURN AIR NODE,Air,2
 Node,75,RESTROOMS VAV TERMINAL OUTLET AIR NODE,Air,4
 Node,76,RESTROOMS RETURN AIR NODE,Air,2
 Node,77,RESTROOM_1_404313B9 VAV TERMINAL OUTLET AIR NODE,Air,4
 Node,78,RESTROOM_1_404313B9 RETURN AIR NODE,Air,2
 Node,79,RESTROOM_2_A377B4B3 VAV TERMINAL OUTLET AIR NODE,Air,4
 Node,80,RESTROOM_2_A377B4B3 RETURN AIR NODE,Air,2
 Node,81,RESTROOM_3_C201E5F7 VAV TERMINAL OUTLET AIR NODE,Air,4
 Node,82,RESTROOM_3_C201E5F7 RETURN AIR NODE,Air,2
 Node,83,RESTROOM_4_33BABDA2 VAV TERMINAL OUTLET AIR NODE,Air,4
 Node,84,RESTROOM_4_33BABDA2 RETURN AIR NODE,Air,2
 Node,85,RESTROOM_5_911A78E2 VAV TERMINAL OUTLET AIR NODE,Air,4
 Node,86,RESTROOM_5_911A78E2 RETURN AIR NODE,Air,2
 Node,87,RESTROOM_6_A019D741 VAV TERMINAL OUTLET AIR NODE,Air,4
 Node,88,RESTROOM_6_A019D741 RETURN AIR NODE,Air,2
 Node,89,ROOM_13_B04291D5 VAV TERMINAL OUTLET AIR NODE,Air,4
 Node,90,ROOM_13_B04291D5 RETURN AIR NODE,Air,2
 Node,91,SE_HALL_PIANO VAV TERMINAL OUTLET AIR NODE,Air,4
 Node,92,SE_HALL_PIANO RETURN AIR NODE,Air,2
 Node,93,SMALL_WEST_CORRIDOR VAV TERMINAL OUTLET AIR NODE,Air,4
 Node,94,SMALL_WEST_CORRIDOR RETURN AIR NODE,Air,2
 Node,95,SOUTH_HALL VAV TERMINAL OUTLET AIR NODE,Air,4
 Node,96,SOUTH_HALL RETURN AIR NODE,Air,2
 Node,97,STAIR_1_1681051F VAV TERMINAL OUTLET AIR NODE,Air,4
 Node,98,STAIR_1_1681051F RETURN AIR NODE,Air,2
 Node,99,STAIR_2_976E6FD5 VAV TERMINAL OUTLET AIR NODE,Air,4
 Node,100,STAIR_2_976E6FD5 RETURN AIR NODE,Air,2
 Node,101,STAIR_3_8F089848 VAV TERMINAL OUTLET AIR NODE,Air,4
 Node,102,STAIR_3_8F089848 RETURN AIR NODE,Air,2
 Node,103,UPSTAIRS_OFFICES VAV TERMINAL OUTLET AIR NODE,Air,4
 Node,104,UPSTAIRS_OFFICES RETURN AIR NODE,Air,2
 Node,105,WEST_CORRIDOR VAV TERMINAL OUTLET AIR NODE,Air,4
 Node,106,WEST_CORRIDOR RETURN AIR NODE,Air,2
 Node,107,WEST_OFFICE_BLOCK VAV TERMINAL OUTLET AIR NODE,Air,4
 Node,108,WEST_OFFICE_BLOCK RETURN AIR NODE,Air,2
 Node,109,54 ZONE VAV SUPPLY OUTLET NODE,Air,10
 Node,110,54 ZONE VAV DEMAND INLET NODE,Air,3
 Node,111,54 ZONE VAV SUPPLY INLET NODE,Air,3
 Node,112,54 ZONE VAV MIXED AIR NODE,Air,5
 Node,113,54 ZONE VAV CLG COIL OUTLET AIR NODE,Air,5
 Node,114,54 ZONE VAV MAIN HTG COIL OUTLET AIR NODE,Air,8
 Node,115,CHILLED WATER LOOP SUPPLY INLET NODE,Water,2
 Node,116,CHILLED WATER LOOP PUMP OUTLET WATER NODE,Water,1
 Node,117,PURCHASED COOLING INLET WATER NODE,Water,1
 Node,118,PURCHASED COOLING OUTLET WATER NODE,Water,1
 Node,119,CHILLED WATER LOOP CHILLER BYPASS INLET WATER NODE,Water,1
 Node,120,CHILLED WATER LOOP CHILLER BYPASS OUTLET WATER NODE,Water,1
 Node,121,CHILLED WATER LOOP SUPPLY OUTLET INLET WATER NODE,Water,1
 Node,122,CHILLED WATER LOOP SUPPLY OUTLET NODE,Water,4
 Node,123,CHILLED WATER LOOP DEMAND INLET NODE,Water,2
 Node,124,CHILLED WATER LOOP DEMAND INLET OUTLET WATER NODE,Water,1
 Node,125,CHILLED WATER LOOP COIL BYPASS INLET WATER NODE,Water,1
 Node,126,CHILLED WATER LOOP COIL BYPASS OUTLET WATER NODE,Water,1
 Node,127,54 ZONE VAV CLG COIL INLET WATER NODE,Water,2
 Node,128,54 ZONE VAV CLG COIL OUTLET WATER NODE,Water,1
 Node,129,CHILLED WATER LOOP DEMAND BYPASS PIPE INLET NODE,Water,1
 Node,130,CHILLED WATER LOOP DEMAND BYPASS PIPE OUTLET NODE,Water,1
 Node,131,CHILLED WATER LOOP DEMAND OUTLET INLET WATER NODE,Water,1
 Node,132,CHILLED WATER LOOP DEMAND OUTLET NODE,Water,2
 Node,133,HOT WATER LOOP SUPPLY INLET NODE,Water,2
 Node,134,HOT WATER LOOP PUMP OUTLET WATER NODE,Water,1
 Node,135,HOT WATER LOOP DISTRICT HEATING INLET WATER NODE,Water,1
 Node,136,HOT WATER LOOP DISTRICT HEATING OUTLET WATER NODE,Water,1
 Node,137,HOT WATER LOOP SUPPLY EQUIPMENT BYPASS INLET WATER NODE,Water,1
 Node,138,HOT WATER LOOP SUPPLY EQUIPMENT BYPASS OUTLET WATER NODE,Water,1
 Node,139,HOT WATER LOOP SUPPLY OUTLET INLET WATER NODE,Water,1
 Node,140,HOT WATER LOOP SUPPLY OUTLET NODE,Water,4
 Node,141,HOT WATER LOOP DEMAND INLET NODE,Water,2
 Node,142,HOT WATER LOOP DEMAND INLET OUTLET WATER NODE,Water,1
 Node,143,HOT WATER LOOP COIL BYPASS INLET WATER NODE,Water,1
 Node,144,HOT WATER LOOP COIL BYPASS OUTLET WATER NODE,Water,1
 Node,145,54 ZONE VAV MAIN HTG COIL INLET WATER NODE,Water,2
 Node,146,54 ZONE VAV MAIN HTG COIL OUTLET WATER NODE,Water,1
 Node,147,113_CAREER_SERVICES REHEAT COIL INLET WATER NODE,Water,1
 Node,148,113_CAREER_SERVICES REHEAT COIL OUTLET WATER NODE,Water,1
 Node,149,NORTH_HALL REHEAT COIL INLET WATER NODE,Water,1
 Node,150,NORTH_HALL REHEAT COIL OUTLET WATER NODE,Water,1
 Node,151,WEST_CORRIDOR REHEAT COIL INLET WATER NODE,Water,1
 Node,152,WEST_CORRIDOR REHEAT COIL OUTLET WATER NODE,Water,1
 Node,153,RESTROOMS REHEAT COIL INLET WATER NODE,Water,1
 Node,154,RESTROOMS REHEAT COIL OUTLET WATER NODE,Water,1
 Node,155,112_ARC REHEAT COIL INLET WATER NODE,Water,1
 Node,156,112_ARC REHEAT COIL OUTLET WATER NODE,Water,1
 Node,157,114_OFFICES REHEAT COIL INLET WATER NODE,Water,1
 Node,158,114_OFFICES REHEAT COIL OUTLET WATER NODE,Water,1
 Node,159,EAST_CORRIDOR REHEAT COIL INLET WATER NODE,Water,1
 Node,160,EAST_CORRIDOR REHEAT COIL OUTLET WATER NODE,Water,1
 Node,161,104_STORAGE REHEAT COIL INLET WATER NODE,Water,1
 Node,162,104_STORAGE REHEAT COIL OUTLET WATER NODE,Water,1
 Node,163,109 REHEAT COIL INLET WATER NODE,Water,1
 Node,164,109 REHEAT COIL OUTLET WATER NODE,Water,1
 Node,165,108 REHEAT COIL INLET WATER NODE,Water,1
 Node,166,108 REHEAT COIL OUTLET WATER NODE,Water,1
 Node,167,SE_HALL_PIANO REHEAT COIL INLET WATER NODE,Water,1
 Node,168,SE_HALL_PIANO REHEAT COIL OUTLET WATER NODE,Water,1
 Node,169,EAST_SMALL_CORRIDOR REHEAT COIL INLET WATER NODE,Water,1
 Node,170,EAST_SMALL_CORRIDOR REHEAT COIL OUTLET WATER NODE,Water,1
 Node,171,SOUTH_HALL REHEAT COIL INLET WATER NODE,Water,1
 Node,172,SOUTH_HALL REHEAT COIL OUTLET WATER NODE,Water,1
 Node,173,SMALL_WEST_CORRIDOR REHEAT COIL INLET WATER NODE,Water,1
 Node,174,SMALL_WEST_CORRIDOR REHEAT COIL OUTLET WATER NODE,Water,1
 Node,175,WEST_OFFICE_BLOCK REHEAT COIL INLET WATER NODE,Water,1
 Node,176,WEST_OFFICE_BLOCK REHEAT COIL OUTLET WATER NODE,Water,1
 Node,177,100_AUDITORIUM REHEAT COIL INLET WATER NODE,Water,1
 Node,178,100_AUDITORIUM REHEAT COIL OUTLET WATER NODE,Water,1
 Node,179,102_OFFICES REHEAT COIL INLET WATER NODE,Water,1
 Node,180,102_OFFICES REHEAT COIL OUTLET WATER NODE,Water,1
 Node,181,AUDITORIUM_LOBBY REHEAT COIL INLET WATER NODE,Water,1
 Node,182,AUDITORIUM_LOBBY REHEAT COIL OUTLET WATER NODE,Water,1
 Node,183,UPSTAIRS_OFFICES REHEAT COIL INLET WATER NODE,Water,1
 Node,184,UPSTAIRS_OFFICES REHEAT COIL OUTLET WATER NODE,Water,1
 Node,185,ROOM_13_B04291D5 REHEAT COIL INLET WATER NODE,Water,1
 Node,186,ROOM_13_B04291D5 REHEAT COIL OUTLET WATER NODE,Water,1
 Node,187,CLASSROOM_1_90B605A9 REHEAT COIL INLET WATER NODE,Water,1
 Node,188,CLASSROOM_1_90B605A9 REHEAT COIL OUTLET WATER NODE,Water,1
 Node,189,CLASSROOM_2_ECCCF8B8 REHEAT COIL INLET WATER NODE,Water,1
 Node,190,CLASSROOM_2_ECCCF8B8 REHEAT COIL OUTLET WATER NODE,Water,1
 Node,191,CORRIDOR_1_FA1FE4C1 REHEAT COIL INLET WATER NODE,Water,1
 Node,192,CORRIDOR_1_FA1FE4C1 REHEAT COIL OUTLET WATER NODE,Water,1
 Node,193,CORRIDOR_2_CFBEC8AA REHEAT COIL INLET WATER NODE,Water,1
 Node,194,CORRIDOR_2_CFBEC8AA REHEAT COIL OUTLET WATER NODE,Water,1
 Node,195,CORRIDOR_3_7621FA0C REHEAT COIL INLET WATER NODE,Water,1
 Node,196,CORRIDOR_3_7621FA0C REHEAT COIL OUTLET WATER NODE,Water,1
 Node,197,CORRIDOR_4_9B747DDD REHEAT COIL INLET WATER NODE,Water,1
 Node,198,CORRIDOR_4_9B747DDD REHEAT COIL OUTLET WATER NODE,Water,1
 Node,199,MECH_1_40A96879 REHEAT COIL INLET WATER NODE,Water,1
 Node,200,MECH_1_40A96879 REHEAT COIL OUTLET WATER NODE,Water,1
 Node,201,MECH_2_C6ABCC9A REHEAT COIL INLET WATER NODE,Water,1
 Node,202,MECH_2_C6ABCC9A REHEAT COIL OUTLET WATER NODE,Water,1
 Node,203,MECH_3_6E799E0F REHEAT COIL INLET WATER NODE,Water,1
 Node,204,MECH_3_6E799E0F REHEAT COIL OUTLET WATER NODE,Water,1
 Node,205,MECH_4_99985F88 REHEAT COIL INLET WATER NODE,Water,1
 Node,206,MECH_4_99985F88 REHEAT COIL OUTLET WATER NODE,Water,1
 Node,207,AUDITORIUMLOWER_0B49D193 REHEAT COIL INLET WATER NODE,Water,1
 Node,208,AUDITORIUMLOWER_0B49D193 REHEAT COIL OUTLET WATER NODE,Water,1
 Node,209,OFFICE_1_B1424685 REHEAT COIL INLET WATER NODE,Water,1
 Node,210,OFFICE_1_B1424685 REHEAT COIL OUTLET WATER NODE,Water,1
 Node,211,OFFICE_2_37CC8413 REHEAT COIL INLET WATER NODE,Water,1
 Node,212,OFFICE_2_37CC8413 REHEAT COIL OUTLET WATER NODE,Water,1
 Node,213,OFFICE_3_93B2C9FF REHEAT COIL INLET WATER NODE,Water,1
 Node,214,OFFICE_3_93B2C9FF REHEAT COIL OUTLET WATER NODE,Water,1
 Node,215,OFFICE_4_3DD7EBAB REHEAT COIL INLET WATER NODE,Water,1
 Node,216,OFFICE_4_3DD7EBAB REHEAT COIL OUTLET WATER NODE,Water,1
 Node,217,OFFICE_5_682148B2 REHEAT COIL INLET WATER NODE,Water,1
 Node,218,OFFICE_5_682148B2 REHEAT COIL OUTLET WATER NODE,Water,1
 Node,219,OFFICE_6_61DD9104 REHEAT COIL INLET WATER NODE,Water,1
 Node,220,OFFICE_6_61DD9104 REHEAT COIL OUTLET WATER NODE,Water,1
 Node,221,RESTROOM_1_404313B9 REHEAT COIL INLET WATER NODE,Water,1
 Node,222,RESTROOM_1_404313B9 REHEAT COIL OUTLET WATER NODE,Water,1
 Node,223,RESTROOM_2_A377B4B3 REHEAT COIL INLET WATER NODE,Water,1
 Node,224,RESTROOM_2_A377B4B3 REHEAT COIL OUTLET WATER NODE,Water,1
 Node,225,RESTROOM_3_C201E5F7 REHEAT COIL INLET WATER NODE,Water,1
 Node,226,RESTROOM_3_C201E5F7 REHEAT COIL OUTLET WATER NODE,Water,1
 Node,227,RESTROOM_4_33BABDA2 REHEAT COIL INLET WATER NODE,Water,1
 Node,228,RESTROOM_4_33BABDA2 REHEAT COIL OUTLET WATER NODE,Water,1
 Node,229,RESTROOM_5_911A78E2 REHEAT COIL INLET WATER NODE,Water,1
 Node,230,RESTROOM_5_911A78E2 REHEAT COIL OUTLET WATER NODE,Water,1
 Node,231,RESTROOM_6_A019D741 REHEAT COIL INLET WATER NODE,Water,1
 Node,232,RESTROOM_6_A019D741 REHEAT COIL OUTLET WATER NODE,Water,1
 Node,233,STAIR_1_1681051F REHEAT COIL INLET WATER NODE,Water,1
 Node,234,STAIR_1_1681051F REHEAT COIL OUTLET WATER NODE,Water,1
 Node,235,STAIR_2_976E6FD5 REHEAT COIL INLET WATER NODE,Water,1
 Node,236,STAIR_2_976E6FD5 REHEAT COIL OUTLET WATER NODE,Water,1
 Node,237,STAIR_3_8F089848 REHEAT COIL INLET WATER NODE,Water,1
 Node,238,STAIR_3_8F089848 REHEAT COIL OUTLET WATER NODE,Water,1
 Node,239,KITCHEN_1_55B9A759 REHEAT COIL INLET WATER NODE,Water,1
 Node,240,KITCHEN_1_55B9A759 REHEAT COIL OUTLET WATER NODE,Water,1
 Node,241,KITCHEN_2_B940211D REHEAT COIL INLET WATER NODE,Water,1
 Node,242,KITCHEN_2_B940211D REHEAT COIL OUTLET WATER NODE,Water,1
 Node,243,KITCHEN_3_3E9A0FB8 REHEAT COIL INLET WATER NODE,Water,1
 Node,244,KITCHEN_3_3E9A0FB8 REHEAT COIL OUTLET WATER NODE,Water,1
 Node,245,BOGDINING_E25F401A REHEAT COIL INLET WATER NODE,Water,1
 Node,246,BOGDINING_E25F401A REHEAT COIL OUTLET WATER NODE,Water,1
 Node,247,BOGPLAY_1_D1F076F9 REHEAT COIL INLET WATER NODE,Water,1
 Node,248,BOGPLAY_1_D1F076F9 REHEAT COIL OUTLET WATER NODE,Water,1
 Node,249,BOGPLAY_2_D145E14C REHEAT COIL INLET WATER NODE,Water,1
 Node,250,BOGPLAY_2_D145E14C REHEAT COIL OUTLET WATER NODE,Water,1
 Node,251,BOGPLAY_1_B863644B REHEAT COIL INLET WATER NODE,Water,1
 Node,252,BOGPLAY_1_B863644B REHEAT COIL OUTLET WATER NODE,Water,1
 Node,253,BOGPLAY_2_4B3AE9FE REHEAT COIL INLET WATER NODE,Water,1
 Node,254,BOGPLAY_2_4B3AE9FE REHEAT COIL OUTLET WATER NODE,Water,1
 Node,255,HOT WATER LOOP DEMAND BYPASS PIPE INLET NODE,Water,1
 Node,256,HOT WATER LOOP DEMAND BYPASS PIPE OUTLET NODE,Water,1
 Node,257,HOT WATER LOOP DEMAND OUTLET INLET WATER NODE,Water,1
 Node,258,HOT WATER LOOP DEMAND OUTLET NODE,Water,2
 Node,259,NODE 1,Water,2
 Node,260,NODE 7,Water,1
 Node,261,NODE 3,Water,1
 Node,262,NODE 8,Water,1
 Node,263,SHW LOOP DEFAULT_DISTRICT_SHW SUPPLY OUTLET PIPE NODE,Water,1
 Node,264,NODE 2,Water,4
 Node,265,NODE 4,Water,2
 Node,266,SHW LOOP DEFAULT_DISTRICT_SHW DEMAND INLET PIPE NODE,Water,1
 Node,267,NODE 6,Water,1
 Node,268,NODE 9,Water,1
 Node,269,NODE 10,Water,1
 Node,270,NODE 11,Water,1
 Node,271,NODE 12,Water,1
 Node,272,NODE 13,Water,1
 Node,273,NODE 14,Water,1
 Node,274,NODE 15,Water,1
 Node,275,NODE 16,Water,1
 Node,276,NODE 17,Water,1
 Node,277,NODE 18,Water,1
 Node,278,NODE 19,Water,1
 Node,279,NODE 20,Water,1
 Node,280,NODE 21,Water,1
 Node,281,NODE 22,Water,1
 Node,282,NODE 23,Water,1
 Node,283,NODE 24,Water,1
 Node,284,NODE 25,Water,1
 Node,285,SHW LOOP DEFAULT_DISTRICT_SHW DEMAND BYPASS PIPE INLET NODE,Water,1
 Node,286,SHW LOOP DEFAULT_DISTRICT_SHW DEMAND BYPASS PIPE OUTLET NODE,Water,1
 Node,287,SHW LOOP DEFAULT_DISTRICT_SHW DEMAND OUTLET PIPE NODE,Water,1
 Node,288,NODE 5,Water,2
 Node,289,100_AUDITORIUM ZONE AIR NODE,Air,0
 Node,290,102_OFFICES ZONE AIR NODE,Air,0
 Node,291,104_STORAGE ZONE AIR NODE,Air,0
 Node,292,108 ZONE AIR NODE,Air,0
 Node,293,109 ZONE AIR NODE,Air,0
 Node,294,112_ARC ZONE AIR NODE,Air,0
 Node,295,113_CAREER_SERVICES ZONE AIR NODE,Air,0
 Node,296,114_OFFICES ZONE AIR NODE,Air,0
 Node,297,AUDITORIUMLOWER_0B49D193 ZONE AIR NODE,Air,0
 Node,298,AUDITORIUM_LOBBY ZONE AIR NODE,Air,0
 Node,299,BOGDINING_E25F401A ZONE AIR NODE,Air,0
 Node,300,BOGPLAY_1_B863644B ZONE AIR NODE,Air,0
 Node,301,BOGPLAY_1_D1F076F9 ZONE AIR NODE,Air,0
 Node,302,BOGPLAY_2_4B3AE9FE ZONE AIR NODE,Air,0
 Node,303,BOGPLAY_2_D145E14C ZONE AIR NODE,Air,0
 Node,304,CLASSROOM_1_90B605A9 ZONE AIR NODE,Air,0
 Node,305,CLASSROOM_2_ECCCF8B8 ZONE AIR NODE,Air,0
 Node,306,CORRIDOR_1_FA1FE4C1 ZONE AIR NODE,Air,0
 Node,307,CORRIDOR_2_CFBEC8AA ZONE AIR NODE,Air,0
 Node,308,CORRIDOR_3_7621FA0C ZONE AIR NODE,Air,0
 Node,309,CORRIDOR_4_9B747DDD ZONE AIR NODE,Air,0
 Node,310,EAST_CORRIDOR ZONE AIR NODE,Air,0
 Node,311,EAST_SMALL_CORRIDOR ZONE AIR NODE,Air,0
 Node,312,KITCHEN_1_55B9A759 ZONE AIR NODE,Air,0
 Node,313,KITCHEN_2_B940211D ZONE AIR NODE,Air,0
 Node,314,KITCHEN_3_3E9A0FB8 ZONE AIR NODE,Air,0
 Node,315,MECH_1_40A96879 ZONE AIR NODE,Air,0
 Node,316,MECH_2_C6ABCC9A ZONE AIR NODE,Air,0
 Node,317,MECH_3_6E799E0F ZONE AIR NODE,Air,0
 Node,318,MECH_4_99985F88 ZONE AIR NODE,Air,0
 Node,319,NORTH_HALL ZONE AIR NODE,Air,0
 Node,320,OFFICE_1_B1424685 ZONE AIR NODE,Air,0
 Node,321,OFFICE_2_37CC8413 ZONE AIR NODE,Air,0
 Node,322,OFFICE_3_93B2C9FF ZONE AIR NODE,Air,0
 Node,323,OFFICE_4_3DD7EBAB ZONE AIR NODE,Air,0
 Node,324,OFFICE_5_682148B2 ZONE AIR NODE,Air,0
 Node,325,OFFICE_6_61DD9104 ZONE AIR NODE,Air,0
 Node,326,RESTROOMS ZONE AIR NODE,Air,0
 Node,327,RESTROOM_1_404313B9 ZONE AIR NODE,Air,0
 Node,328,RESTROOM_2_A377B4B3 ZONE AIR NODE,Air,0
 Node,329,RESTROOM_3_C201E5F7 ZONE AIR NODE,Air,0
 Node,330,RESTROOM_4_33BABDA2 ZONE AIR NODE,Air,0
 Node,331,RESTROOM_5_911A78E2 ZONE AIR NODE,Air,0
 Node,332,RESTROOM_6_A019D741 ZONE AIR NODE,Air,0
 Node,333,ROOM_13_B04291D5 ZONE AIR NODE,Air,0
 Node,334,SE_HALL_PIANO ZONE AIR NODE,Air,0
 Node,335,SMALL_WEST_CORRIDOR ZONE AIR NODE,Air,0
 Node,336,SOUTH_HALL ZONE AIR NODE,Air,0
 Node,337,STAIR_1_1681051F ZONE AIR NODE,Air,0
 Node,338,STAIR_2_976E6FD5 ZONE AIR NODE,Air,0
 Node,339,STAIR_3_8F089848 ZONE AIR NODE,Air,0
 Node,340,UPSTAIRS_OFFICES ZONE AIR NODE,Air,0
 Node,341,WEST_CORRIDOR ZONE AIR NODE,Air,0
 Node,342,WEST_OFFICE_BLOCK ZONE AIR NODE,Air,0
 Node,343,54 ZONE VAV DEMAND OUTLET NODE,Air,2
 Node,344,54 ZONE VAV OUTDOOR AIR NODE,Air,2
 Node,345,MODEL OUTDOOR AIR NODE,Air,0
 Node,346,113_CAREER_SERVICES VAV TERMINAL INLET AIR NODE,Air,1
 Node,347,NORTH_HALL VAV TERMINAL INLET AIR NODE,Air,1
 Node,348,WEST_CORRIDOR VAV TERMINAL INLET AIR NODE,Air,1
 Node,349,RESTROOMS VAV TERMINAL INLET AIR NODE,Air,1
 Node,350,112_ARC VAV TERMINAL INLET AIR NODE,Air,1
 Node,351,114_OFFICES VAV TERMINAL INLET AIR NODE,Air,1
 Node,352,EAST_CORRIDOR VAV TERMINAL INLET AIR NODE,Air,1
 Node,353,104_STORAGE VAV TERMINAL INLET AIR NODE,Air,1
 Node,354,109 VAV TERMINAL INLET AIR NODE,Air,1
 Node,355,108 VAV TERMINAL INLET AIR NODE,Air,1
 Node,356,SE_HALL_PIANO VAV TERMINAL INLET AIR NODE,Air,1
 Node,357,EAST_SMALL_CORRIDOR VAV TERMINAL INLET AIR NODE,Air,1
 Node,358,SOUTH_HALL VAV TERMINAL INLET AIR NODE,Air,1
 Node,359,SMALL_WEST_CORRIDOR VAV TERMINAL INLET AIR NODE,Air,1
 Node,360,WEST_OFFICE_BLOCK VAV TERMINAL INLET AIR NODE,Air,1
 Node,361,100_AUDITORIUM VAV TERMINAL INLET AIR NODE,Air,1
 Node,362,102_OFFICES VAV TERMINAL INLET AIR NODE,Air,1
 Node,363,AUDITORIUM_LOBBY VAV TERMINAL INLET AIR NODE,Air,1
 Node,364,UPSTAIRS_OFFICES VAV TERMINAL INLET AIR NODE,Air,1
 Node,365,ROOM_13_B04291D5 VAV TERMINAL INLET AIR NODE,Air,1
 Node,366,CLASSROOM_1_90B605A9 VAV TERMINAL INLET AIR NODE,Air,1
 Node,367,CLASSROOM_2_ECCCF8B8 VAV TERMINAL INLET AIR NODE,Air,1
 Node,368,CORRIDOR_1_FA1FE4C1 VAV TERMINAL INLET AIR NODE,Air,1
 Node,369,CORRIDOR_2_CFBEC8AA VAV TERMINAL INLET AIR NODE,Air,1
 Node,370,CORRIDOR_3_7621FA0C VAV TERMINAL INLET AIR NODE,Air,1
 Node,371,CORRIDOR_4_9B747DDD VAV TERMINAL INLET AIR NODE,Air,1
 Node,372,MECH_1_40A96879 VAV TERMINAL INLET AIR NODE,Air,1
 Node,373,MECH_2_C6ABCC9A VAV TERMINAL INLET AIR NODE,Air,1
 Node,374,MECH_3_6E799E0F VAV TERMINAL INLET AIR NODE,Air,1
 Node,375,MECH_4_99985F88 VAV TERMINAL INLET AIR NODE,Air,1
 Node,376,AUDITORIUMLOWER_0B49D193 VAV TERMINAL INLET AIR NODE,Air,1
 Node,377,OFFICE_1_B1424685 VAV TERMINAL INLET AIR NODE,Air,1
 Node,378,OFFICE_2_37CC8413 VAV TERMINAL INLET AIR NODE,Air,1
 Node,379,OFFICE_3_93B2C9FF VAV TERMINAL INLET AIR NODE,Air,1
 Node,380,OFFICE_4_3DD7EBAB VAV TERMINAL INLET AIR NODE,Air,1
 Node,381,OFFICE_5_682148B2 VAV TERMINAL INLET AIR NODE,Air,1
 Node,382,OFFICE_6_61DD9104 VAV TERMINAL INLET AIR NODE,Air,1
 Node,383,RESTROOM_1_404313B9 VAV TERMINAL INLET AIR NODE,Air,1
 Node,384,RESTROOM_2_A377B4B3 VAV TERMINAL INLET AIR NODE,Air,1
 Node,385,RESTROOM_3_C201E5F7 VAV TERMINAL INLET AIR NODE,Air,1
 Node,386,RESTROOM_4_33BABDA2 VAV TERMINAL INLET AIR NODE,Air,1
 Node,387,RESTROOM_5_911A78E2 VAV TERMINAL INLET AIR NODE,Air,1
 Node,388,RESTROOM_6_A019D741 VAV TERMINAL INLET AIR NODE,Air,1
 Node,389,STAIR_1_1681051F VAV TERMINAL INLET AIR NODE,Air,1
 Node,390,STAIR_2_976E6FD5 VAV TERMINAL INLET AIR NODE,Air,1
 Node,391,STAIR_3_8F089848 VAV TERMINAL INLET AIR NODE,Air,1
 Node,392,KITCHEN_1_55B9A759 VAV TERMINAL INLET AIR NODE,Air,1
 Node,393,KITCHEN_2_B940211D VAV TERMINAL INLET AIR NODE,Air,1
 Node,394,KITCHEN_3_3E9A0FB8 VAV TERMINAL INLET AIR NODE,Air,1
 Node,395,BOGDINING_E25F401A VAV TERMINAL INLET AIR NODE,Air,1
 Node,396,BOGPLAY_1_D1F076F9 VAV TERMINAL INLET AIR NODE,Air,1
 Node,397,BOGPLAY_2_D145E14C VAV TERMINAL INLET AIR NODE,Air,1
 Node,398,BOGPLAY_1_B863644B VAV TERMINAL INLET AIR NODE,Air,1
 Node,399,BOGPLAY_2_4B3AE9FE VAV TERMINAL INLET AIR NODE,Air,1
 Node,400,100_AUDITORIUM VAV TERMINAL DAMPER OUTLET,Air,1
 Node,401,102_OFFICES VAV TERMINAL DAMPER OUTLET,Air,1
 Node,402,104_STORAGE VAV TERMINAL DAMPER OUTLET,Air,1
 Node,403,108 VAV TERMINAL DAMPER OUTLET,Air,1
 Node,404,109 VAV TERMINAL DAMPER OUTLET,Air,1
 Node,405,112_ARC VAV TERMINAL DAMPER OUTLET,Air,1
 Node,406,113_CAREER_SERVICES VAV TERMINAL DAMPER OUTLET,Air,1
 Node,407,114_OFFICES VAV TERMINAL DAMPER OUTLET,Air,1
 Node,408,AUDITORIUMLOWER_0B49D193 VAV TERMINAL DAMPER OUTLET,Air,1
 Node,409,AUDITORIUM_LOBBY VAV TERMINAL DAMPER OUTLET,Air,1
 Node,410,BOGDINING_E25F401A VAV TERMINAL DAMPER OUTLET,Air,1
 Node,411,BOGPLAY_1_B863644B VAV TERMINAL DAMPER OUTLET,Air,1
 Node,412,BOGPLAY_1_D1F076F9 VAV TERMINAL DAMPER OUTLET,Air,1
 Node,413,BOGPLAY_2_4B3AE9FE VAV TERMINAL DAMPER OUTLET,Air,1
 Node,414,BOGPLAY_2_D145E14C VAV TERMINAL DAMPER OUTLET,Air,1
 Node,415,CLASSROOM_1_90B605A9 VAV TERMINAL DAMPER OUTLET,Air,1
 Node,416,CLASSROOM_2_ECCCF8B8 VAV TERMINAL DAMPER OUTLET,Air,1
 Node,417,CORRIDOR_1_FA1FE4C1 VAV TERMINAL DAMPER OUTLET,Air,1
 Node,418,CORRIDOR_2_CFBEC8AA VAV TERMINAL DAMPER OUTLET,Air,1
 Node,419,CORRIDOR_3_7621FA0C VAV TERMINAL DAMPER OUTLET,Air,1
 Node,420,CORRIDOR_4_9B747DDD VAV TERMINAL DAMPER OUTLET,Air,1
 Node,421,EAST_CORRIDOR VAV TERMINAL DAMPER OUTLET,Air,1
 Node,422,EAST_SMALL_CORRIDOR VAV TERMINAL DAMPER OUTLET,Air,1
 Node,423,KITCHEN_1_55B9A759 VAV TERMINAL DAMPER OUTLET,Air,1
 Node,424,KITCHEN_2_B940211D VAV TERMINAL DAMPER OUTLET,Air,1
 Node,425,KITCHEN_3_3E9A0FB8 VAV TERMINAL DAMPER OUTLET,Air,1
 Node,426,MECH_1_40A96879 VAV TERMINAL DAMPER OUTLET,Air,1
 Node,427,MECH_2_C6ABCC9A VAV TERMINAL DAMPER OUTLET,Air,1
 Node,428,MECH_3_6E799E0F VAV TERMINAL DAMPER OUTLET,Air,1
 Node,429,MECH_4_99985F88 VAV TERMINAL DAMPER OUTLET,Air,1
 Node,430,NORTH_HALL VAV TERMINAL DAMPER OUTLET,Air,1
 Node,431,OFFICE_1_B1424685 VAV TERMINAL DAMPER OUTLET,Air,1
 Node,432,OFFICE_2_37CC8413 VAV TERMINAL DAMPER OUTLET,Air,1
 Node,433,OFFICE_3_93B2C9FF VAV TERMINAL DAMPER OUTLET,Air,1
 Node,434,OFFICE_4_3DD7EBAB VAV TERMINAL DAMPER OUTLET,Air,1
 Node,435,OFFICE_5_682148B2 VAV TERMINAL DAMPER OUTLET,Air,1
 Node,436,OFFICE_6_61DD9104 VAV TERMINAL DAMPER OUTLET,Air,1
 Node,437,RESTROOMS VAV TERMINAL DAMPER OUTLET,Air,1
 Node,438,RESTROOM_1_404313B9 VAV TERMINAL DAMPER OUTLET,Air,1
 Node,439,RESTROOM_2_A377B4B3 VAV TERMINAL DAMPER OUTLET,Air,1
 Node,440,RESTROOM_3_C201E5F7 VAV TERMINAL DAMPER OUTLET,Air,1
 Node,441,RESTROOM_4_33BABDA2 VAV TERMINAL DAMPER OUTLET,Air,1
 Node,442,RESTROOM_5_911A78E2 VAV TERMINAL DAMPER OUTLET,Air,1
 Node,443,RESTROOM_6_A019D741 VAV TERMINAL DAMPER OUTLET,Air,1
 Node,444,ROOM_13_B04291D5 VAV TERMINAL DAMPER OUTLET,Air,1
 Node,445,SE_HALL_PIANO VAV TERMINAL DAMPER OUTLET,Air,1
 Node,446,SMALL_WEST_CORRIDOR VAV TERMINAL DAMPER OUTLET,Air,1
 Node,447,SOUTH_HALL VAV TERMINAL DAMPER OUTLET,Air,1
 Node,448,STAIR_1_1681051F VAV TERMINAL DAMPER OUTLET,Air,1
 Node,449,STAIR_2_976E6FD5 VAV TERMINAL DAMPER OUTLET,Air,1
 Node,450,STAIR_3_8F089848 VAV TERMINAL DAMPER OUTLET,Air,1
 Node,451,UPSTAIRS_OFFICES VAV TERMINAL DAMPER OUTLET,Air,1
 Node,452,WEST_CORRIDOR VAV TERMINAL DAMPER OUTLET,Air,1
 Node,453,WEST_OFFICE_BLOCK VAV TERMINAL DAMPER OUTLET,Air,1
 Node,454,54 ZONE VAV RELIEF AIR NODE,Air,1
! ===============================================================
! Suspicious nodes have 0 references.  It is normal for some nodes, however.
! Listing nodes with 0 references (culled from previous list):
! <Suspicious Node>,<NodeNumber>,<Node Name>,<Node Fluid Type>,<# Times Node Referenced After Definition>
 Suspicious Node,289,100_AUDITORIUM ZONE AIR NODE,Air,0
 Suspicious Node,290,102_OFFICES ZONE AIR NODE,Air,0
 Suspicious Node,291,104_STORAGE ZONE AIR NODE,Air,0
 Suspicious Node,292,108 ZONE AIR NODE,Air,0
 Suspicious Node,293,109 ZONE AIR NODE,Air,0
 Suspicious Node,294,112_ARC ZONE AIR NODE,Air,0
 Suspicious Node,295,113_CAREER_SERVICES ZONE AIR NODE,Air,0
 Suspicious Node,296,114_OFFICES ZONE AIR NODE,Air,0
 Suspicious Node,297,AUDITORIUMLOWER_0B49D193 ZONE AIR NODE,Air,0
 Suspicious Node,298,AUDITORIUM_LOBBY ZONE AIR NODE,Air,0
 Suspicious Node,299,BOGDINING_E25F401A ZONE AIR NODE,Air,0
 Suspicious Node,300,BOGPLAY_1_B863644B ZONE AIR NODE,Air,0
 Suspicious Node,301,BOGPLAY_1_D1F076F9 ZONE AIR NODE,Air,0
 Suspicious Node,302,BOGPLAY_2_4B3AE9FE ZONE AIR NODE,Air,0
 Suspicious Node,303,BOGPLAY_2_D145E14C ZONE AIR NODE,Air,0
 Suspicious Node,304,CLASSROOM_1_90B605A9 ZONE AIR NODE,Air,0
 Suspicious Node,305,CLASSROOM_2_ECCCF8B8 ZONE AIR NODE,Air,0
 Suspicious Node,306,CORRIDOR_1_FA1FE4C1 ZONE AIR NODE,Air,0
 Suspicious Node,307,CORRIDOR_2_CFBEC8AA ZONE AIR NODE,Air,0
 Suspicious Node,308,CORRIDOR_3_7621FA0C ZONE AIR NODE,Air,0
 Suspicious Node,309,CORRIDOR_4_9B747DDD ZONE AIR NODE,Air,0
 Suspicious Node,310,EAST_CORRIDOR ZONE AIR NODE,Air,0
 Suspicious Node,311,EAST_SMALL_CORRIDOR ZONE AIR NODE,Air,0
 Suspicious Node,312,KITCHEN_1_55B9A759 ZONE AIR NODE,Air,0
 Suspicious Node,313,KITCHEN_2_B940211D ZONE AIR NODE,Air,0
 Suspicious Node,314,KITCHEN_3_3E9A0FB8 ZONE AIR NODE,Air,0
 Suspicious Node,315,MECH_1_40A96879 ZONE AIR NODE,Air,0
 Suspicious Node,316,MECH_2_C6ABCC9A ZONE AIR NODE,Air,0
 Suspicious Node,317,MECH_3_6E799E0F ZONE AIR NODE,Air,0
 Suspicious Node,318,MECH_4_99985F88 ZONE AIR NODE,Air,0
 Suspicious Node,319,NORTH_HALL ZONE AIR NODE,Air,0
 Suspicious Node,320,OFFICE_1_B1424685 ZONE AIR NODE,Air,0
 Suspicious Node,321,OFFICE_2_37CC8413 ZONE AIR NODE,Air,0
 Suspicious Node,322,OFFICE_3_93B2C9FF ZONE AIR NODE,Air,0
 Suspicious Node,323,OFFICE_4_3DD7EBAB ZONE AIR NODE,Air,0
 Suspicious Node,324,OFFICE_5_682148B2 ZONE AIR NODE,Air,0
 Suspicious Node,325,OFFICE_6_61DD9104 ZONE AIR NODE,Air,0
 Suspicious Node,326,RESTROOMS ZONE AIR NODE,Air,0
 Suspicious Node,327,RESTROOM_1_404313B9 ZONE AIR NODE,Air,0
 Suspicious Node,328,RESTROOM_2_A377B4B3 ZONE AIR NODE,Air,0
 Suspicious Node,329,RESTROOM_3_C201E5F7 ZONE AIR NODE,Air,0
 Suspicious Node,330,RESTROOM_4_33BABDA2 ZONE AIR NODE,Air,0
 Suspicious Node,331,RESTROOM_5_911A78E2 ZONE AIR NODE,Air,0
 Suspicious Node,332,RESTROOM_6_A019D741 ZONE AIR NODE,Air,0
 Suspicious Node,333,ROOM_13_B04291D5 ZONE AIR NODE,Air,0
 Suspicious Node,334,SE_HALL_PIANO ZONE AIR NODE,Air,0
 Suspicious Node,335,SMALL_WEST_CORRIDOR ZONE AIR NODE,Air,0
 Suspicious Node,336,SOUTH_HALL ZONE AIR NODE,Air,0
 Suspicious Node,337,STAIR_1_1681051F ZONE AIR NODE,Air,0
 Suspicious Node,338,STAIR_2_976E6FD5 ZONE AIR NODE,Air,0
 Suspicious Node,339,STAIR_3_8F089848 ZONE AIR NODE,Air,0
 Suspicious Node,340,UPSTAIRS_OFFICES ZONE AIR NODE,Air,0
 Suspicious Node,341,WEST_CORRIDOR ZONE AIR NODE,Air,0
 Suspicious Node,342,WEST_OFFICE_BLOCK ZONE AIR NODE,Air,0
 Suspicious Node,345,MODEL OUTDOOR AIR NODE,Air,0
! ===============================================================
! <#Branch Lists>,<Number of Branch Lists>
 #Branch Lists,7
! <Branch List>,<Branch List Count>,<Branch List Name>,<Loop Name>,<Loop Type>,<Number of Branches>
! <Branch>,<Branch Count>,<Branch Name>,<Loop Name>,<Loop Type>,<Branch Inlet Node Name>,<Branch Outlet Node Name>
 Branch List,1,54 ZONE VAV SUPPLY BRANCHES,54 ZONE VAV,Air,1
   Branch,1,54 ZONE VAV MAIN BRANCH,54 ZONE VAV,Air,54 ZONE VAV SUPPLY INLET NODE,54 ZONE VAV SUPPLY OUTLET NODE
 Branch List,2,CHILLED WATER LOOP SUPPLY BRANCHES,CHILLED WATER LOOP,Plant Supply,4
   Branch,1,CHILLED WATER LOOP SUPPLY INLET BRANCH,CHILLED WATER LOOP,Plant Supply,CHILLED WATER LOOP SUPPLY INLET NODE,CHILLED WATER LOOP PUMP OUTLET WATER NODE
   Branch,2,CHILLED WATER LOOP SUPPLY BRANCH 1,CHILLED WATER LOOP,Plant Supply,PURCHASED COOLING INLET WATER NODE,PURCHASED COOLING OUTLET WATER NODE
   Branch,3,CHILLED WATER LOOP SUPPLY BRANCH 2,CHILLED WATER LOOP,Plant Supply,CHILLED WATER LOOP CHILLER BYPASS INLET WATER NODE,CHILLED WATER LOOP CHILLER BYPASS OUTLET WATER NODE
   Branch,4,CHILLED WATER LOOP SUPPLY OUTLET BRANCH,CHILLED WATER LOOP,Plant Supply,CHILLED WATER LOOP SUPPLY OUTLET INLET WATER NODE,CHILLED WATER LOOP SUPPLY OUTLET NODE
 Branch List,3,CHILLED WATER LOOP DEMAND BRANCHES,CHILLED WATER LOOP,Plant Demand,5
   Branch,1,CHILLED WATER LOOP DEMAND INLET BRANCH,CHILLED WATER LOOP,Plant Demand,CHILLED WATER LOOP DEMAND INLET NODE,CHILLED WATER LOOP DEMAND INLET OUTLET WATER NODE
   Branch,2,CHILLED WATER LOOP DEMAND BRANCH 1,CHILLED WATER LOOP,Plant Demand,CHILLED WATER LOOP COIL BYPASS INLET WATER NODE,CHILLED WATER LOOP COIL BYPASS OUTLET WATER NODE
   Branch,3,CHILLED WATER LOOP DEMAND BRANCH 2,CHILLED WATER LOOP,Plant Demand,54 ZONE VAV CLG COIL INLET WATER NODE,54 ZONE VAV CLG COIL OUTLET WATER NODE
   Branch,4,CHILLED WATER LOOP DEMAND BYPASS BRANCH,CHILLED WATER LOOP,Plant Demand,CHILLED WATER LOOP DEMAND BYPASS PIPE INLET NODE,CHILLED WATER LOOP DEMAND BYPASS PIPE OUTLET NODE
   Branch,5,CHILLED WATER LOOP DEMAND OUTLET BRANCH,CHILLED WATER LOOP,Plant Demand,CHILLED WATER LOOP DEMAND OUTLET INLET WATER NODE,CHILLED WATER LOOP DEMAND OUTLET NODE
 Branch List,4,HOT WATER LOOP SUPPLY BRANCHES,HOT WATER LOOP,Plant Supply,4
   Branch,1,HOT WATER LOOP SUPPLY INLET BRANCH,HOT WATER LOOP,Plant Supply,HOT WATER LOOP SUPPLY INLET NODE,HOT WATER LOOP PUMP OUTLET WATER NODE
   Branch,2,HOT WATER LOOP SUPPLY BRANCH 1,HOT WATER LOOP,Plant Supply,HOT WATER LOOP DISTRICT HEATING INLET WATER NODE,HOT WATER LOOP DISTRICT HEATING OUTLET WATER NODE
   Branch,3,HOT WATER LOOP SUPPLY BRANCH 2,HOT WATER LOOP,Plant Supply,HOT WATER LOOP SUPPLY EQUIPMENT BYPASS INLET WATER NODE,HOT WATER LOOP SUPPLY EQUIPMENT BYPASS OUTLET WATER NODE
   Branch,4,HOT WATER LOOP SUPPLY OUTLET BRANCH,HOT WATER LOOP,Plant Supply,HOT WATER LOOP SUPPLY OUTLET INLET WATER NODE,HOT WATER LOOP SUPPLY OUTLET NODE
 Branch List,5,HOT WATER LOOP DEMAND BRANCHES,HOT WATER LOOP,Plant Demand,59
   Branch,1,HOT WATER LOOP DEMAND INLET BRANCH,HOT WATER LOOP,Plant Demand,HOT WATER LOOP DEMAND INLET NODE,HOT WATER LOOP DEMAND INLET OUTLET WATER NODE
   Branch,2,HOT WATER LOOP DEMAND BRANCH 1,HOT WATER LOOP,Plant Demand,HOT WATER LOOP COIL BYPASS INLET WATER NODE,HOT WATER LOOP COIL BYPASS OUTLET WATER NODE
   Branch,3,HOT WATER LOOP DEMAND BRANCH 2,HOT WATER LOOP,Plant Demand,54 ZONE VAV MAIN HTG COIL INLET WATER NODE,54 ZONE VAV MAIN HTG COIL OUTLET WATER NODE
   Branch,4,HOT WATER LOOP DEMAND BRANCH 3,HOT WATER LOOP,Plant Demand,113_CAREER_SERVICES REHEAT COIL INLET WATER NODE,113_CAREER_SERVICES REHEAT COIL OUTLET WATER NODE
   Branch,5,HOT WATER LOOP DEMAND BRANCH 4,HOT WATER LOOP,Plant Demand,NORTH_HALL REHEAT COIL INLET WATER NODE,NORTH_HALL REHEAT COIL OUTLET WATER NODE
   Branch,6,HOT WATER LOOP DEMAND BRANCH 5,HOT WATER LOOP,Plant Demand,WEST_CORRIDOR REHEAT COIL INLET WATER NODE,WEST_CORRIDOR REHEAT COIL OUTLET WATER NODE
   Branch,7,HOT WATER LOOP DEMAND BRANCH 6,HOT WATER LOOP,Plant Demand,RESTROOMS REHEAT COIL INLET WATER NODE,RESTROOMS REHEAT COIL OUTLET WATER NODE
   Branch,8,HOT WATER LOOP DEMAND BRANCH 7,HOT WATER LOOP,Plant Demand,112_ARC REHEAT COIL INLET WATER NODE,112_ARC REHEAT COIL OUTLET WATER NODE
   Branch,9,HOT WATER LOOP DEMAND BRANCH 8,HOT WATER LOOP,Plant Demand,114_OFFICES REHEAT COIL INLET WATER NODE,114_OFFICES REHEAT COIL OUTLET WATER NODE
   Branch,10,HOT WATER LOOP DEMAND BRANCH 9,HOT WATER LOOP,Plant Demand,EAST_CORRIDOR REHEAT COIL INLET WATER NODE,EAST_CORRIDOR REHEAT COIL OUTLET WATER NODE
   Branch,11,HOT WATER LOOP DEMAND BRANCH 10,HOT WATER LOOP,Plant Demand,104_STORAGE REHEAT COIL INLET WATER NODE,104_STORAGE REHEAT COIL OUTLET WATER NODE
   Branch,12,HOT WATER LOOP DEMAND BRANCH 11,HOT WATER LOOP,Plant Demand,109 REHEAT COIL INLET WATER NODE,109 REHEAT COIL OUTLET WATER NODE
   Branch,13,HOT WATER LOOP DEMAND BRANCH 12,HOT WATER LOOP,Plant Demand,108 REHEAT COIL INLET WATER NODE,108 REHEAT COIL OUTLET WATER NODE
   Branch,14,HOT WATER LOOP DEMAND BRANCH 13,HOT WATER LOOP,Plant Demand,SE_HALL_PIANO REHEAT COIL INLET WATER NODE,SE_HALL_PIANO REHEAT COIL OUTLET WATER NODE
   Branch,15,HOT WATER LOOP DEMAND BRANCH 14,HOT WATER LOOP,Plant Demand,EAST_SMALL_CORRIDOR REHEAT COIL INLET WATER NODE,EAST_SMALL_CORRIDOR REHEAT COIL OUTLET WATER NODE
   Branch,16,HOT WATER LOOP DEMAND BRANCH 15,HOT WATER LOOP,Plant Demand,SOUTH_HALL REHEAT COIL INLET WATER NODE,SOUTH_HALL REHEAT COIL OUTLET WATER NODE
   Branch,17,HOT WATER LOOP DEMAND BRANCH 16,HOT WATER LOOP,Plant Demand,SMALL_WEST_CORRIDOR REHEAT COIL INLET WATER NODE,SMALL_WEST_CORRIDOR REHEAT COIL OUTLET WATER NODE
   Branch,18,HOT WATER LOOP DEMAND BRANCH 17,HOT WATER LOOP,Plant Demand,WEST_OFFICE_BLOCK REHEAT COIL INLET WATER NODE,WEST_OFFICE_BLOCK REHEAT COIL OUTLET WATER NODE
   Branch,19,HOT WATER LOOP DEMAND BRANCH 18,HOT WATER LOOP,Plant Demand,100_AUDITORIUM REHEAT COIL INLET WATER NODE,100_AUDITORIUM REHEAT COIL OUTLET WATER NODE
   Branch,20,HOT WATER LOOP DEMAND BRANCH 19,HOT WATER LOOP,Plant Demand,102_OFFICES REHEAT COIL INLET WATER NODE,102_OFFICES REHEAT COIL OUTLET WATER NODE
   Branch,21,HOT WATER LOOP DEMAND BRANCH 20,HOT WATER LOOP,Plant Demand,AUDITORIUM_LOBBY REHEAT COIL INLET WATER NODE,AUDITORIUM_LOBBY REHEAT COIL OUTLET WATER NODE
   Branch,22,HOT WATER LOOP DEMAND BRANCH 21,HOT WATER LOOP,Plant Demand,UPSTAIRS_OFFICES REHEAT COIL INLET WATER NODE,UPSTAIRS_OFFICES REHEAT COIL OUTLET WATER NODE
   Branch,23,HOT WATER LOOP DEMAND BRANCH 22,HOT WATER LOOP,Plant Demand,ROOM_13_B04291D5 REHEAT COIL INLET WATER NODE,ROOM_13_B04291D5 REHEAT COIL OUTLET WATER NODE
   Branch,24,HOT WATER LOOP DEMAND BRANCH 23,HOT WATER LOOP,Plant Demand,CLASSROOM_1_90B605A9 REHEAT COIL INLET WATER NODE,CLASSROOM_1_90B605A9 REHEAT COIL OUTLET WATER NODE
   Branch,25,HOT WATER LOOP DEMAND BRANCH 24,HOT WATER LOOP,Plant Demand,CLASSROOM_2_ECCCF8B8 REHEAT COIL INLET WATER NODE,CLASSROOM_2_ECCCF8B8 REHEAT COIL OUTLET WATER NODE
   Branch,26,HOT WATER LOOP DEMAND BRANCH 25,HOT WATER LOOP,Plant Demand,CORRIDOR_1_FA1FE4C1 REHEAT COIL INLET WATER NODE,CORRIDOR_1_FA1FE4C1 REHEAT COIL OUTLET WATER NODE
   Branch,27,HOT WATER LOOP DEMAND BRANCH 26,HOT WATER LOOP,Plant Demand,CORRIDOR_2_CFBEC8AA REHEAT COIL INLET WATER NODE,CORRIDOR_2_CFBEC8AA REHEAT COIL OUTLET WATER NODE
   Branch,28,HOT WATER LOOP DEMAND BRANCH 27,HOT WATER LOOP,Plant Demand,CORRIDOR_3_7621FA0C REHEAT COIL INLET WATER NODE,CORRIDOR_3_7621FA0C REHEAT COIL OUTLET WATER NODE
   Branch,29,HOT WATER LOOP DEMAND BRANCH 28,HOT WATER LOOP,Plant Demand,CORRIDOR_4_9B747DDD REHEAT COIL INLET WATER NODE,CORRIDOR_4_9B747DDD REHEAT COIL OUTLET WATER NODE
   Branch,30,HOT WATER LOOP DEMAND BRANCH 29,HOT WATER LOOP,Plant Demand,MECH_1_40A96879 REHEAT COIL INLET WATER NODE,MECH_1_40A96879 REHEAT COIL OUTLET WATER NODE
   Branch,31,HOT WATER LOOP DEMAND BRANCH 30,HOT WATER LOOP,Plant Demand,MECH_2_C6ABCC9A REHEAT COIL INLET WATER NODE,MECH_2_C6ABCC9A REHEAT COIL OUTLET WATER NODE
   Branch,32,HOT WATER LOOP DEMAND BRANCH 31,HOT WATER LOOP,Plant Demand,MECH_3_6E799E0F REHEAT COIL INLET WATER NODE,MECH_3_6E799E0F REHEAT COIL OUTLET WATER NODE
   Branch,33,HOT WATER LOOP DEMAND BRANCH 32,HOT WATER LOOP,Plant Demand,MECH_4_99985F88 REHEAT COIL INLET WATER NODE,MECH_4_99985F88 REHEAT COIL OUTLET WATER NODE
   Branch,34,HOT WATER LOOP DEMAND BRANCH 33,HOT WATER LOOP,Plant Demand,AUDITORIUMLOWER_0B49D193 REHEAT COIL INLET WATER NODE,AUDITORIUMLOWER_0B49D193 REHEAT COIL OUTLET WATER NODE
   Branch,35,HOT WATER LOOP DEMAND BRANCH 34,HOT WATER LOOP,Plant Demand,OFFICE_1_B1424685 REHEAT COIL INLET WATER NODE,OFFICE_1_B1424685 REHEAT COIL OUTLET WATER NODE
   Branch,36,HOT WATER LOOP DEMAND BRANCH 35,HOT WATER LOOP,Plant Demand,OFFICE_2_37CC8413 REHEAT COIL INLET WATER NODE,OFFICE_2_37CC8413 REHEAT COIL OUTLET WATER NODE
   Branch,37,HOT WATER LOOP DEMAND BRANCH 36,HOT WATER LOOP,Plant Demand,OFFICE_3_93B2C9FF REHEAT COIL INLET WATER NODE,OFFICE_3_93B2C9FF REHEAT COIL OUTLET WATER NODE
   Branch,38,HOT WATER LOOP DEMAND BRANCH 37,HOT WATER LOOP,Plant Demand,OFFICE_4_3DD7EBAB REHEAT COIL INLET WATER NODE,OFFICE_4_3DD7EBAB REHEAT COIL OUTLET WATER NODE
   Branch,39,HOT WATER LOOP DEMAND BRANCH 38,HOT WATER LOOP,Plant Demand,OFFICE_5_682148B2 REHEAT COIL INLET WATER NODE,OFFICE_5_682148B2 REHEAT COIL OUTLET WATER NODE
   Branch,40,HOT WATER LOOP DEMAND BRANCH 39,HOT WATER LOOP,Plant Demand,OFFICE_6_61DD9104 REHEAT COIL INLET WATER NODE,OFFICE_6_61DD9104 REHEAT COIL OUTLET WATER NODE
   Branch,41,HOT WATER LOOP DEMAND BRANCH 40,HOT WATER LOOP,Plant Demand,RESTROOM_1_404313B9 REHEAT COIL INLET WATER NODE,RESTROOM_1_404313B9 REHEAT COIL OUTLET WATER NODE
   Branch,42,HOT WATER LOOP DEMAND BRANCH 41,HOT WATER LOOP,Plant Demand,RESTROOM_2_A377B4B3 REHEAT COIL INLET WATER NODE,RESTROOM_2_A377B4B3 REHEAT COIL OUTLET WATER NODE
   Branch,43,HOT WATER LOOP DEMAND BRANCH 42,HOT WATER LOOP,Plant Demand,RESTROOM_3_C201E5F7 REHEAT COIL INLET WATER NODE,RESTROOM_3_C201E5F7 REHEAT COIL OUTLET WATER NODE
   Branch,44,HOT WATER LOOP DEMAND BRANCH 43,HOT WATER LOOP,Plant Demand,RESTROOM_4_33BABDA2 REHEAT COIL INLET WATER NODE,RESTROOM_4_33BABDA2 REHEAT COIL OUTLET WATER NODE
   Branch,45,HOT WATER LOOP DEMAND BRANCH 44,HOT WATER LOOP,Plant Demand,RESTROOM_5_911A78E2 REHEAT COIL INLET WATER NODE,RESTROOM_5_911A78E2 REHEAT COIL OUTLET WATER NODE
   Branch,46,HOT WATER LOOP DEMAND BRANCH 45,HOT WATER LOOP,Plant Demand,RESTROOM_6_A019D741 REHEAT COIL INLET WATER NODE,RESTROOM_6_A019D741 REHEAT COIL OUTLET WATER NODE
   Branch,47,HOT WATER LOOP DEMAND BRANCH 46,HOT WATER LOOP,Plant Demand,STAIR_1_1681051F REHEAT COIL INLET WATER NODE,STAIR_1_1681051F REHEAT COIL OUTLET WATER NODE
   Branch,48,HOT WATER LOOP DEMAND BRANCH 47,HOT WATER LOOP,Plant Demand,STAIR_2_976E6FD5 REHEAT COIL INLET WATER NODE,STAIR_2_976E6FD5 REHEAT COIL OUTLET WATER NODE
   Branch,49,HOT WATER LOOP DEMAND BRANCH 48,HOT WATER LOOP,Plant Demand,STAIR_3_8F089848 REHEAT COIL INLET WATER NODE,STAIR_3_8F089848 REHEAT COIL OUTLET WATER NODE
   Branch,50,HOT WATER LOOP DEMAND BRANCH 49,HOT WATER LOOP,Plant Demand,KITCHEN_1_55B9A759 REHEAT COIL INLET WATER NODE,KITCHEN_1_55B9A759 REHEAT COIL OUTLET WATER NODE
   Branch,51,HOT WATER LOOP DEMAND BRANCH 50,HOT WATER LOOP,Plant Demand,KITCHEN_2_B940211D REHEAT COIL INLET WATER NODE,KITCHEN_2_B940211D REHEAT COIL OUTLET WATER NODE
   Branch,52,HOT WATER LOOP DEMAND BRANCH 51,HOT WATER LOOP,Plant Demand,KITCHEN_3_3E9A0FB8 REHEAT COIL INLET WATER NODE,KITCHEN_3_3E9A0FB8 REHEAT COIL OUTLET WATER NODE
   Branch,53,HOT WATER LOOP DEMAND BRANCH 52,HOT WATER LOOP,Plant Demand,BOGDINING_E25F401A REHEAT COIL INLET WATER NODE,BOGDINING_E25F401A REHEAT COIL OUTLET WATER NODE
   Branch,54,HOT WATER LOOP DEMAND BRANCH 53,HOT WATER LOOP,Plant Demand,BOGPLAY_1_D1F076F9 REHEAT COIL INLET WATER NODE,BOGPLAY_1_D1F076F9 REHEAT COIL OUTLET WATER NODE
   Branch,55,HOT WATER LOOP DEMAND BRANCH 54,HOT WATER LOOP,Plant Demand,BOGPLAY_2_D145E14C REHEAT COIL INLET WATER NODE,BOGPLAY_2_D145E14C REHEAT COIL OUTLET WATER NODE
   Branch,56,HOT WATER LOOP DEMAND BRANCH 55,HOT WATER LOOP,Plant Demand,BOGPLAY_1_B863644B REHEAT COIL INLET WATER NODE,BOGPLAY_1_B863644B REHEAT COIL OUTLET WATER NODE
   Branch,57,HOT WATER LOOP DEMAND BRANCH 56,HOT WATER LOOP,Plant Demand,BOGPLAY_2_4B3AE9FE REHEAT COIL INLET WATER NODE,BOGPLAY_2_4B3AE9FE REHEAT COIL OUTLET WATER NODE
   Branch,58,HOT WATER LOOP DEMAND BYPASS BRANCH,HOT WATER LOOP,Plant Demand,HOT WATER LOOP DEMAND BYPASS PIPE INLET NODE,HOT WATER LOOP DEMAND BYPASS PIPE OUTLET NODE
   Branch,59,HOT WATER LOOP DEMAND OUTLET BRANCH,HOT WATER LOOP,Plant Demand,HOT WATER LOOP DEMAND OUTLET INLET WATER NODE,HOT WATER LOOP DEMAND OUTLET NODE
 Branch List,6,SHW LOOP DEFAULT_DISTRICT_SHW SUPPLY BRANCHES,SHW LOOP DEFAULT_DISTRICT_SHW,Plant Supply,3
   Branch,1,SHW LOOP DEFAULT_DISTRICT_SHW SUPPLY INLET BRANCH,SHW LOOP DEFAULT_DISTRICT_SHW,Plant Supply,NODE 1,NODE 7
   Branch,2,SHW LOOP DEFAULT_DISTRICT_SHW SUPPLY BRANCH 1,SHW LOOP DEFAULT_DISTRICT_SHW,Plant Supply,NODE 3,NODE 8
   Branch,3,SHW LOOP DEFAULT_DISTRICT_SHW SUPPLY OUTLET BRANCH,SHW LOOP DEFAULT_DISTRICT_SHW,Plant Supply,SHW LOOP DEFAULT_DISTRICT_SHW SUPPLY OUTLET PIPE NODE,NODE 2
 Branch List,7,SHW LOOP DEFAULT_DISTRICT_SHW DEMAND BRANCHES,SHW LOOP DEFAULT_DISTRICT_SHW,Plant Demand,12
   Branch,1,SHW LOOP DEFAULT_DISTRICT_SHW DEMAND INLET BRANCH,SHW LOOP DEFAULT_DISTRICT_SHW,Plant Demand,NODE 4,SHW LOOP DEFAULT_DISTRICT_SHW DEMAND INLET PIPE NODE
   Branch,2,SHW LOOP DEFAULT_DISTRICT_SHW DEMAND BRANCH 1,SHW LOOP DEFAULT_DISTRICT_SHW,Plant Demand,NODE 6,NODE 9
   Branch,3,SHW LOOP DEFAULT_DISTRICT_SHW DEMAND BRANCH 2,SHW LOOP DEFAULT_DISTRICT_SHW,Plant Demand,NODE 10,NODE 11
   Branch,4,SHW LOOP DEFAULT_DISTRICT_SHW DEMAND BRANCH 3,SHW LOOP DEFAULT_DISTRICT_SHW,Plant Demand,NODE 12,NODE 13
   Branch,5,SHW LOOP DEFAULT_DISTRICT_SHW DEMAND BRANCH 4,SHW LOOP DEFAULT_DISTRICT_SHW,Plant Demand,NODE 14,NODE 15
   Branch,6,SHW LOOP DEFAULT_DISTRICT_SHW DEMAND BRANCH 5,SHW LOOP DEFAULT_DISTRICT_SHW,Plant Demand,NODE 16,NODE 17
   Branch,7,SHW LOOP DEFAULT_DISTRICT_SHW DEMAND BRANCH 6,SHW LOOP DEFAULT_DISTRICT_SHW,Plant Demand,NODE 18,NODE 19
   Branch,8,SHW LOOP DEFAULT_DISTRICT_SHW DEMAND BRANCH 7,SHW LOOP DEFAULT_DISTRICT_SHW,Plant Demand,NODE 20,NODE 21
   Branch,9,SHW LOOP DEFAULT_DISTRICT_SHW DEMAND BRANCH 8,SHW LOOP DEFAULT_DISTRICT_SHW,Plant Demand,NODE 22,NODE 23
   Branch,10,SHW LOOP DEFAULT_DISTRICT_SHW DEMAND BRANCH 9,SHW LOOP DEFAULT_DISTRICT_SHW,Plant Demand,NODE 24,NODE 25
   Branch,11,SHW LOOP DEFAULT_DISTRICT_SHW DEMAND BYPASS BRANCH,SHW LOOP DEFAULT_DISTRICT_SHW,Plant Demand,SHW LOOP DEFAULT_DISTRICT_SHW DEMAND BYPASS PIPE INLET NODE,SHW LOOP DEFAULT_DISTRICT_SHW DEMAND BYPASS PIPE OUTLET NODE
   Branch,12,SHW LOOP DEFAULT_DISTRICT_SHW DEMAND OUTLET BRANCH,SHW LOOP DEFAULT_DISTRICT_SHW,Plant Demand,SHW LOOP DEFAULT_DISTRICT_SHW DEMAND OUTLET PIPE NODE,NODE 5
! ===============================================================
! <#Supply Air Paths>,<Number of Supply Air Paths>
 #Supply Air Paths,1
! <Supply Air Path>,<Supply Air Path Count>,<Supply Air Path Name>,<AirLoopHVAC Name>
! <#Components on Supply Air Path>,<Number of Components>
! <Supply Air Path Component>,<Component Count>,<Component Type>,<Component Name>,<AirLoopHVAC Name>
! <#Outlet Nodes on Supply Air Path Component>,<Number of Nodes>
! <Supply Air Path Component Nodes>,<Node Count>,<Component Type>,<Component Name>,<Inlet Node Name>,<Outlet Node Name>,<AirLoopHVAC Name>
 Supply Air Path,1,54 ZONE VAV 54 ZONE VAV DEMAND INLET NODE SUPPLY PATH,54 ZONE VAV
   #Components on Supply Air Path,1
   Supply Air Path Component,1,AIRLOOPHVAC:ZONESPLITTER,AIR LOOP HVAC ZONE SPLITTER 1,54 ZONE VAV
     #Outlet Nodes on Supply Air Path Component,54
     Supply Air Path Component Nodes,1,AIRLOOPHVAC:ZONESPLITTER,AIR LOOP HVAC ZONE SPLITTER 1,54 ZONE VAV DEMAND INLET NODE,113_CAREER_SERVICES VAV TERMINAL INLET AIR NODE,54 ZONE VAV
     Supply Air Path Component Nodes,2,AIRLOOPHVAC:ZONESPLITTER,AIR LOOP HVAC ZONE SPLITTER 1,54 ZONE VAV DEMAND INLET NODE,NORTH_HALL VAV TERMINAL INLET AIR NODE,54 ZONE VAV
     Supply Air Path Component Nodes,3,AIRLOOPHVAC:ZONESPLITTER,AIR LOOP HVAC ZONE SPLITTER 1,54 ZONE VAV DEMAND INLET NODE,WEST_CORRIDOR VAV TERMINAL INLET AIR NODE,54 ZONE VAV
     Supply Air Path Component Nodes,4,AIRLOOPHVAC:ZONESPLITTER,AIR LOOP HVAC ZONE SPLITTER 1,54 ZONE VAV DEMAND INLET NODE,RESTROOMS VAV TERMINAL INLET AIR NODE,54 ZONE VAV
     Supply Air Path Component Nodes,5,AIRLOOPHVAC:ZONESPLITTER,AIR LOOP HVAC ZONE SPLITTER 1,54 ZONE VAV DEMAND INLET NODE,112_ARC VAV TERMINAL INLET AIR NODE,54 ZONE VAV
     Supply Air Path Component Nodes,6,AIRLOOPHVAC:ZONESPLITTER,AIR LOOP HVAC ZONE SPLITTER 1,54 ZONE VAV DEMAND INLET NODE,114_OFFICES VAV TERMINAL INLET AIR NODE,54 ZONE VAV
     Supply Air Path Component Nodes,7,AIRLOOPHVAC:ZONESPLITTER,AIR LOOP HVAC ZONE SPLITTER 1,54 ZONE VAV DEMAND INLET NODE,EAST_CORRIDOR VAV TERMINAL INLET AIR NODE,54 ZONE VAV
     Supply Air Path Component Nodes,8,AIRLOOPHVAC:ZONESPLITTER,AIR LOOP HVAC ZONE SPLITTER 1,54 ZONE VAV DEMAND INLET NODE,104_STORAGE VAV TERMINAL INLET AIR NODE,54 ZONE VAV
     Supply Air Path Component Nodes,9,AIRLOOPHVAC:ZONESPLITTER,AIR LOOP HVAC ZONE SPLITTER 1,54 ZONE VAV DEMAND INLET NODE,109 VAV TERMINAL INLET AIR NODE,54 ZONE VAV
     Supply Air Path Component Nodes,10,AIRLOOPHVAC:ZONESPLITTER,AIR LOOP HVAC ZONE SPLITTER 1,54 ZONE VAV DEMAND INLET NODE,108 VAV TERMINAL INLET AIR NODE,54 ZONE VAV
     Supply Air Path Component Nodes,11,AIRLOOPHVAC:ZONESPLITTER,AIR LOOP HVAC ZONE SPLITTER 1,54 ZONE VAV DEMAND INLET NODE,SE_HALL_PIANO VAV TERMINAL INLET AIR NODE,54 ZONE VAV
     Supply Air Path Component Nodes,12,AIRLOOPHVAC:ZONESPLITTER,AIR LOOP HVAC ZONE SPLITTER 1,54 ZONE VAV DEMAND INLET NODE,EAST_SMALL_CORRIDOR VAV TERMINAL INLET AIR NODE,54 ZONE VAV
     Supply Air Path Component Nodes,13,AIRLOOPHVAC:ZONESPLITTER,AIR LOOP HVAC ZONE SPLITTER 1,54 ZONE VAV DEMAND INLET NODE,SOUTH_HALL VAV TERMINAL INLET AIR NODE,54 ZONE VAV
     Supply Air Path Component Nodes,14,AIRLOOPHVAC:ZONESPLITTER,AIR LOOP HVAC ZONE SPLITTER 1,54 ZONE VAV DEMAND INLET NODE,SMALL_WEST_CORRIDOR VAV TERMINAL INLET AIR NODE,54 ZONE VAV
     Supply Air Path Component Nodes,15,AIRLOOPHVAC:ZONESPLITTER,AIR LOOP HVAC ZONE SPLITTER 1,54 ZONE VAV DEMAND INLET NODE,WEST_OFFICE_BLOCK VAV TERMINAL INLET AIR NODE,54 ZONE VAV
     Supply Air Path Component Nodes,16,AIRLOOPHVAC:ZONESPLITTER,AIR LOOP HVAC ZONE SPLITTER 1,54 ZONE VAV DEMAND INLET NODE,100_AUDITORIUM VAV TERMINAL INLET AIR NODE,54 ZONE VAV
     Supply Air Path Component Nodes,17,AIRLOOPHVAC:ZONESPLITTER,AIR LOOP HVAC ZONE SPLITTER 1,54 ZONE VAV DEMAND INLET NODE,102_OFFICES VAV TERMINAL INLET AIR NODE,54 ZONE VAV
     Supply Air Path Component Nodes,18,AIRLOOPHVAC:ZONESPLITTER,AIR LOOP HVAC ZONE SPLITTER 1,54 ZONE VAV DEMAND INLET NODE,AUDITORIUM_LOBBY VAV TERMINAL INLET AIR NODE,54 ZONE VAV
     Supply Air Path Component Nodes,19,AIRLOOPHVAC:ZONESPLITTER,AIR LOOP HVAC ZONE SPLITTER 1,54 ZONE VAV DEMAND INLET NODE,UPSTAIRS_OFFICES VAV TERMINAL INLET AIR NODE,54 ZONE VAV
     Supply Air Path Component Nodes,20,AIRLOOPHVAC:ZONESPLITTER,AIR LOOP HVAC ZONE SPLITTER 1,54 ZONE VAV DEMAND INLET NODE,ROOM_13_B04291D5 VAV TERMINAL INLET AIR NODE,54 ZONE VAV
     Supply Air Path Component Nodes,21,AIRLOOPHVAC:ZONESPLITTER,AIR LOOP HVAC ZONE SPLITTER 1,54 ZONE VAV DEMAND INLET NODE,CLASSROOM_1_90B605A9 VAV TERMINAL INLET AIR NODE,54 ZONE VAV
     Supply Air Path Component Nodes,22,AIRLOOPHVAC:ZONESPLITTER,AIR LOOP HVAC ZONE SPLITTER 1,54 ZONE VAV DEMAND INLET NODE,CLASSROOM_2_ECCCF8B8 VAV TERMINAL INLET AIR NODE,54 ZONE VAV
     Supply Air Path Component Nodes,23,AIRLOOPHVAC:ZONESPLITTER,AIR LOOP HVAC ZONE SPLITTER 1,54 ZONE VAV DEMAND INLET NODE,CORRIDOR_1_FA1FE4C1 VAV TERMINAL INLET AIR NODE,54 ZONE VAV
     Supply Air Path Component Nodes,24,AIRLOOPHVAC:ZONESPLITTER,AIR LOOP HVAC ZONE SPLITTER 1,54 ZONE VAV DEMAND INLET NODE,CORRIDOR_2_CFBEC8AA VAV TERMINAL INLET AIR NODE,54 ZONE VAV
     Supply Air Path Component Nodes,25,AIRLOOPHVAC:ZONESPLITTER,AIR LOOP HVAC ZONE SPLITTER 1,54 ZONE VAV DEMAND INLET NODE,CORRIDOR_3_7621FA0C VAV TERMINAL INLET AIR NODE,54 ZONE VAV
     Supply Air Path Component Nodes,26,AIRLOOPHVAC:ZONESPLITTER,AIR LOOP HVAC ZONE SPLITTER 1,54 ZONE VAV DEMAND INLET NODE,CORRIDOR_4_9B747DDD VAV TERMINAL INLET AIR NODE,54 ZONE VAV
     Supply Air Path Component Nodes,27,AIRLOOPHVAC:ZONESPLITTER,AIR LOOP HVAC ZONE SPLITTER 1,54 ZONE VAV DEMAND INLET NODE,MECH_1_40A96879 VAV TERMINAL INLET AIR NODE,54 ZONE VAV
     Supply Air Path Component Nodes,28,AIRLOOPHVAC:ZONESPLITTER,AIR LOOP HVAC ZONE SPLITTER 1,54 ZONE VAV DEMAND INLET NODE,MECH_2_C6ABCC9A VAV TERMINAL INLET AIR NODE,54 ZONE VAV
     Supply Air Path Component Nodes,29,AIRLOOPHVAC:ZONESPLITTER,AIR LOOP HVAC ZONE SPLITTER 1,54 ZONE VAV DEMAND INLET NODE,MECH_3_6E799E0F VAV TERMINAL INLET AIR NODE,54 ZONE VAV
     Supply Air Path Component Nodes,30,AIRLOOPHVAC:ZONESPLITTER,AIR LOOP HVAC ZONE SPLITTER 1,54 ZONE VAV DEMAND INLET NODE,MECH_4_99985F88 VAV TERMINAL INLET AIR NODE,54 ZONE VAV
     Supply Air Path Component Nodes,31,AIRLOOPHVAC:ZONESPLITTER,AIR LOOP HVAC ZONE SPLITTER 1,54 ZONE VAV DEMAND INLET NODE,AUDITORIUMLOWER_0B49D193 VAV TERMINAL INLET AIR NODE,54 ZONE VAV
     Supply Air Path Component Nodes,32,AIRLOOPHVAC:ZONESPLITTER,AIR LOOP HVAC ZONE SPLITTER 1,54 ZONE VAV DEMAND INLET NODE,OFFICE_1_B1424685 VAV TERMINAL INLET AIR NODE,54 ZONE VAV
     Supply Air Path Component Nodes,33,AIRLOOPHVAC:ZONESPLITTER,AIR LOOP HVAC ZONE SPLITTER 1,54 ZONE VAV DEMAND INLET NODE,OFFICE_2_37CC8413 VAV TERMINAL INLET AIR NODE,54 ZONE VAV
     Supply Air Path Component Nodes,34,AIRLOOPHVAC:ZONESPLITTER,AIR LOOP HVAC ZONE SPLITTER 1,54 ZONE VAV DEMAND INLET NODE,OFFICE_3_93B2C9FF VAV TERMINAL INLET AIR NODE,54 ZONE VAV
     Supply Air Path Component Nodes,35,AIRLOOPHVAC:ZONESPLITTER,AIR LOOP HVAC ZONE SPLITTER 1,54 ZONE VAV DEMAND INLET NODE,OFFICE_4_3DD7EBAB VAV TERMINAL INLET AIR NODE,54 ZONE VAV
     Supply Air Path Component Nodes,36,AIRLOOPHVAC:ZONESPLITTER,AIR LOOP HVAC ZONE SPLITTER 1,54 ZONE VAV DEMAND INLET NODE,OFFICE_5_682148B2 VAV TERMINAL INLET AIR NODE,54 ZONE VAV
     Supply Air Path Component Nodes,37,AIRLOOPHVAC:ZONESPLITTER,AIR LOOP HVAC ZONE SPLITTER 1,54 ZONE VAV DEMAND INLET NODE,OFFICE_6_61DD9104 VAV TERMINAL INLET AIR NODE,54 ZONE VAV
     Supply Air Path Component Nodes,38,AIRLOOPHVAC:ZONESPLITTER,AIR LOOP HVAC ZONE SPLITTER 1,54 ZONE VAV DEMAND INLET NODE,RESTROOM_1_404313B9 VAV TERMINAL INLET AIR NODE,54 ZONE VAV
     Supply Air Path Component Nodes,39,AIRLOOPHVAC:ZONESPLITTER,AIR LOOP HVAC ZONE SPLITTER 1,54 ZONE VAV DEMAND INLET NODE,RESTROOM_2_A377B4B3 VAV TERMINAL INLET AIR NODE,54 ZONE VAV
     Supply Air Path Component Nodes,40,AIRLOOPHVAC:ZONESPLITTER,AIR LOOP HVAC ZONE SPLITTER 1,54 ZONE VAV DEMAND INLET NODE,RESTROOM_3_C201E5F7 VAV TERMINAL INLET AIR NODE,54 ZONE VAV
     Supply Air Path Component Nodes,41,AIRLOOPHVAC:ZONESPLITTER,AIR LOOP HVAC ZONE SPLITTER 1,54 ZONE VAV DEMAND INLET NODE,RESTROOM_4_33BABDA2 VAV TERMINAL INLET AIR NODE,54 ZONE VAV
     Supply Air Path Component Nodes,42,AIRLOOPHVAC:ZONESPLITTER,AIR LOOP HVAC ZONE SPLITTER 1,54 ZONE VAV DEMAND INLET NODE,RESTROOM_5_911A78E2 VAV TERMINAL INLET AIR NODE,54 ZONE VAV
     Supply Air Path Component Nodes,43,AIRLOOPHVAC:ZONESPLITTER,AIR LOOP HVAC ZONE SPLITTER 1,54 ZONE VAV DEMAND INLET NODE,RESTROOM_6_A019D741 VAV TERMINAL INLET AIR NODE,54 ZONE VAV
     Supply Air Path Component Nodes,44,AIRLOOPHVAC:ZONESPLITTER,AIR LOOP HVAC ZONE SPLITTER 1,54 ZONE VAV DEMAND INLET NODE,STAIR_1_1681051F VAV TERMINAL INLET AIR NODE,54 ZONE VAV
     Supply Air Path Component Nodes,45,AIRLOOPHVAC:ZONESPLITTER,AIR LOOP HVAC ZONE SPLITTER 1,54 ZONE VAV DEMAND INLET NODE,STAIR_2_976E6FD5 VAV TERMINAL INLET AIR NODE,54 ZONE VAV
     Supply Air Path Component Nodes,46,AIRLOOPHVAC:ZONESPLITTER,AIR LOOP HVAC ZONE SPLITTER 1,54 ZONE VAV DEMAND INLET NODE,STAIR_3_8F089848 VAV TERMINAL INLET AIR NODE,54 ZONE VAV
     Supply Air Path Component Nodes,47,AIRLOOPHVAC:ZONESPLITTER,AIR LOOP HVAC ZONE SPLITTER 1,54 ZONE VAV DEMAND INLET NODE,KITCHEN_1_55B9A759 VAV TERMINAL INLET AIR NODE,54 ZONE VAV
     Supply Air Path Component Nodes,48,AIRLOOPHVAC:ZONESPLITTER,AIR LOOP HVAC ZONE SPLITTER 1,54 ZONE VAV DEMAND INLET NODE,KITCHEN_2_B940211D VAV TERMINAL INLET AIR NODE,54 ZONE VAV
     Supply Air Path Component Nodes,49,AIRLOOPHVAC:ZONESPLITTER,AIR LOOP HVAC ZONE SPLITTER 1,54 ZONE VAV DEMAND INLET NODE,KITCHEN_3_3E9A0FB8 VAV TERMINAL INLET AIR NODE,54 ZONE VAV
     Supply Air Path Component Nodes,50,AIRLOOPHVAC:ZONESPLITTER,AIR LOOP HVAC ZONE SPLITTER 1,54 ZONE VAV DEMAND INLET NODE,BOGDINING_E25F401A VAV TERMINAL INLET AIR NODE,54 ZONE VAV
     Supply Air Path Component Nodes,51,AIRLOOPHVAC:ZONESPLITTER,AIR LOOP HVAC ZONE SPLITTER 1,54 ZONE VAV DEMAND INLET NODE,BOGPLAY_1_D1F076F9 VAV TERMINAL INLET AIR NODE,54 ZONE VAV
     Supply Air Path Component Nodes,52,AIRLOOPHVAC:ZONESPLITTER,AIR LOOP HVAC ZONE SPLITTER 1,54 ZONE VAV DEMAND INLET NODE,BOGPLAY_2_D145E14C VAV TERMINAL INLET AIR NODE,54 ZONE VAV
     Supply Air Path Component Nodes,53,AIRLOOPHVAC:ZONESPLITTER,AIR LOOP HVAC ZONE SPLITTER 1,54 ZONE VAV DEMAND INLET NODE,BOGPLAY_1_B863644B VAV TERMINAL INLET AIR NODE,54 ZONE VAV
     Supply Air Path Component Nodes,54,AIRLOOPHVAC:ZONESPLITTER,AIR LOOP HVAC ZONE SPLITTER 1,54 ZONE VAV DEMAND INLET NODE,BOGPLAY_2_4B3AE9FE VAV TERMINAL INLET AIR NODE,54 ZONE VAV
! <#Nodes on Supply Air Path>,<Number of Nodes>
! <Supply Air Path Node>,<Node Type>,<Node Count>,<Node Name>,<AirLoopHVAC Name>
#Nodes on Supply Air Path,55
   Supply Air Path Node,Inlet Node,1,54 ZONE VAV DEMAND INLET NODE,54 ZONE VAV
   Supply Air Path Node,Outlet Node,2,113_CAREER_SERVICES VAV TERMINAL INLET AIR NODE,54 ZONE VAV
   Supply Air Path Node,Outlet Node,3,NORTH_HALL VAV TERMINAL INLET AIR NODE,54 ZONE VAV
   Supply Air Path Node,Outlet Node,4,WEST_CORRIDOR VAV TERMINAL INLET AIR NODE,54 ZONE VAV
   Supply Air Path Node,Outlet Node,5,RESTROOMS VAV TERMINAL INLET AIR NODE,54 ZONE VAV
   Supply Air Path Node,Outlet Node,6,112_ARC VAV TERMINAL INLET AIR NODE,54 ZONE VAV
   Supply Air Path Node,Outlet Node,7,114_OFFICES VAV TERMINAL INLET AIR NODE,54 ZONE VAV
   Supply Air Path Node,Outlet Node,8,EAST_CORRIDOR VAV TERMINAL INLET AIR NODE,54 ZONE VAV
   Supply Air Path Node,Outlet Node,9,104_STORAGE VAV TERMINAL INLET AIR NODE,54 ZONE VAV
   Supply Air Path Node,Outlet Node,10,109 VAV TERMINAL INLET AIR NODE,54 ZONE VAV
   Supply Air Path Node,Outlet Node,11,108 VAV TERMINAL INLET AIR NODE,54 ZONE VAV
   Supply Air Path Node,Outlet Node,12,SE_HALL_PIANO VAV TERMINAL INLET AIR NODE,54 ZONE VAV
   Supply Air Path Node,Outlet Node,13,EAST_SMALL_CORRIDOR VAV TERMINAL INLET AIR NODE,54 ZONE VAV
   Supply Air Path Node,Outlet Node,14,SOUTH_HALL VAV TERMINAL INLET AIR NODE,54 ZONE VAV
   Supply Air Path Node,Outlet Node,15,SMALL_WEST_CORRIDOR VAV TERMINAL INLET AIR NODE,54 ZONE VAV
   Supply Air Path Node,Outlet Node,16,WEST_OFFICE_BLOCK VAV TERMINAL INLET AIR NODE,54 ZONE VAV
   Supply Air Path Node,Outlet Node,17,100_AUDITORIUM VAV TERMINAL INLET AIR NODE,54 ZONE VAV
   Supply Air Path Node,Outlet Node,18,102_OFFICES VAV TERMINAL INLET AIR NODE,54 ZONE VAV
   Supply Air Path Node,Outlet Node,19,AUDITORIUM_LOBBY VAV TERMINAL INLET AIR NODE,54 ZONE VAV
   Supply Air Path Node,Outlet Node,20,UPSTAIRS_OFFICES VAV TERMINAL INLET AIR NODE,54 ZONE VAV
   Supply Air Path Node,Outlet Node,21,ROOM_13_B04291D5 VAV TERMINAL INLET AIR NODE,54 ZONE VAV
   Supply Air Path Node,Outlet Node,22,CLASSROOM_1_90B605A9 VAV TERMINAL INLET AIR NODE,54 ZONE VAV
   Supply Air Path Node,Outlet Node,23,CLASSROOM_2_ECCCF8B8 VAV TERMINAL INLET AIR NODE,54 ZONE VAV
   Supply Air Path Node,Outlet Node,24,CORRIDOR_1_FA1FE4C1 VAV TERMINAL INLET AIR NODE,54 ZONE VAV
   Supply Air Path Node,Outlet Node,25,CORRIDOR_2_CFBEC8AA VAV TERMINAL INLET AIR NODE,54 ZONE VAV
   Supply Air Path Node,Outlet Node,26,CORRIDOR_3_7621FA0C VAV TERMINAL INLET AIR NODE,54 ZONE VAV
   Supply Air Path Node,Outlet Node,27,CORRIDOR_4_9B747DDD VAV TERMINAL INLET AIR NODE,54 ZONE VAV
   Supply Air Path Node,Outlet Node,28,MECH_1_40A96879 VAV TERMINAL INLET AIR NODE,54 ZONE VAV
   Supply Air Path Node,Outlet Node,29,MECH_2_C6ABCC9A VAV TERMINAL INLET AIR NODE,54 ZONE VAV
   Supply Air Path Node,Outlet Node,30,MECH_3_6E799E0F VAV TERMINAL INLET AIR NODE,54 ZONE VAV
   Supply Air Path Node,Outlet Node,31,MECH_4_99985F88 VAV TERMINAL INLET AIR NODE,54 ZONE VAV
   Supply Air Path Node,Outlet Node,32,AUDITORIUMLOWER_0B49D193 VAV TERMINAL INLET AIR NODE,54 ZONE VAV
   Supply Air Path Node,Outlet Node,33,OFFICE_1_B1424685 VAV TERMINAL INLET AIR NODE,54 ZONE VAV
   Supply Air Path Node,Outlet Node,34,OFFICE_2_37CC8413 VAV TERMINAL INLET AIR NODE,54 ZONE VAV
   Supply Air Path Node,Outlet Node,35,OFFICE_3_93B2C9FF VAV TERMINAL INLET AIR NODE,54 ZONE VAV
   Supply Air Path Node,Outlet Node,36,OFFICE_4_3DD7EBAB VAV TERMINAL INLET AIR NODE,54 ZONE VAV
   Supply Air Path Node,Outlet Node,37,OFFICE_5_682148B2 VAV TERMINAL INLET AIR NODE,54 ZONE VAV
   Supply Air Path Node,Outlet Node,38,OFFICE_6_61DD9104 VAV TERMINAL INLET AIR NODE,54 ZONE VAV
   Supply Air Path Node,Outlet Node,39,RESTROOM_1_404313B9 VAV TERMINAL INLET AIR NODE,54 ZONE VAV
   Supply Air Path Node,Outlet Node,40,RESTROOM_2_A377B4B3 VAV TERMINAL INLET AIR NODE,54 ZONE VAV
   Supply Air Path Node,Outlet Node,41,RESTROOM_3_C201E5F7 VAV TERMINAL INLET AIR NODE,54 ZONE VAV
   Supply Air Path Node,Outlet Node,42,RESTROOM_4_33BABDA2 VAV TERMINAL INLET AIR NODE,54 ZONE VAV
   Supply Air Path Node,Outlet Node,43,RESTROOM_5_911A78E2 VAV TERMINAL INLET AIR NODE,54 ZONE VAV
   Supply Air Path Node,Outlet Node,44,RESTROOM_6_A019D741 VAV TERMINAL INLET AIR NODE,54 ZONE VAV
   Supply Air Path Node,Outlet Node,45,STAIR_1_1681051F VAV TERMINAL INLET AIR NODE,54 ZONE VAV
   Supply Air Path Node,Outlet Node,46,STAIR_2_976E6FD5 VAV TERMINAL INLET AIR NODE,54 ZONE VAV
   Supply Air Path Node,Outlet Node,47,STAIR_3_8F089848 VAV TERMINAL INLET AIR NODE,54 ZONE VAV
   Supply Air Path Node,Outlet Node,48,KITCHEN_1_55B9A759 VAV TERMINAL INLET AIR NODE,54 ZONE VAV
   Supply Air Path Node,Outlet Node,49,KITCHEN_2_B940211D VAV TERMINAL INLET AIR NODE,54 ZONE VAV
   Supply Air Path Node,Outlet Node,50,KITCHEN_3_3E9A0FB8 VAV TERMINAL INLET AIR NODE,54 ZONE VAV
   Supply Air Path Node,Outlet Node,51,BOGDINING_E25F401A VAV TERMINAL INLET AIR NODE,54 ZONE VAV
   Supply Air Path Node,Outlet Node,52,BOGPLAY_1_D1F076F9 VAV TERMINAL INLET AIR NODE,54 ZONE VAV
   Supply Air Path Node,Outlet Node,53,BOGPLAY_2_D145E14C VAV TERMINAL INLET AIR NODE,54 ZONE VAV
   Supply Air Path Node,Outlet Node,54,BOGPLAY_1_B863644B VAV TERMINAL INLET AIR NODE,54 ZONE VAV
   Supply Air Path Node,Outlet Node,55,BOGPLAY_2_4B3AE9FE VAV TERMINAL INLET AIR NODE,54 ZONE VAV
! ===============================================================
! <#Return Air Paths>,<Number of Return Air Paths>
 #Return Air Paths,1
! <Return Air Path>,<Return Air Path Count>,<Return Air Path Name>,<AirLoopHVAC Name>
! <#Components on Return Air Path>,<Number of Components>
! <Return Air Path Component>,<Component Count>,<Component Type>,<Component Name>,<AirLoopHVAC Name>
! <#Inlet Nodes on Return Air Path Component>,<Number of Nodes>
! <Return Air Path Component Nodes>,<Node Count>,<Component Type>,<Component Name>,<Inlet Node Name>,<Outlet Node Name>,<AirLoopHVAC Name>
 Return Air Path,1,54 ZONE VAV RETURN PATH,54 ZONE VAV
   #Components on Return Air Path,1
   Return Air Path Component,1,AIRLOOPHVAC:ZONEMIXER,AIR LOOP HVAC ZONE MIXER 1,54 ZONE VAV
     #Inlet Nodes on Return Air Path Component,54
     Return Air Path Component Nodes,1,AIRLOOPHVAC:ZONEMIXER,AIR LOOP HVAC ZONE MIXER 1,113_CAREER_SERVICES RETURN AIR NODE,54 ZONE VAV DEMAND OUTLET NODE,54 ZONE VAV
     Return Air Path Component Nodes,2,AIRLOOPHVAC:ZONEMIXER,AIR LOOP HVAC ZONE MIXER 1,NORTH_HALL RETURN AIR NODE,54 ZONE VAV DEMAND OUTLET NODE,54 ZONE VAV
     Return Air Path Component Nodes,3,AIRLOOPHVAC:ZONEMIXER,AIR LOOP HVAC ZONE MIXER 1,WEST_CORRIDOR RETURN AIR NODE,54 ZONE VAV DEMAND OUTLET NODE,54 ZONE VAV
     Return Air Path Component Nodes,4,AIRLOOPHVAC:ZONEMIXER,AIR LOOP HVAC ZONE MIXER 1,RESTROOMS RETURN AIR NODE,54 ZONE VAV DEMAND OUTLET NODE,54 ZONE VAV
     Return Air Path Component Nodes,5,AIRLOOPHVAC:ZONEMIXER,AIR LOOP HVAC ZONE MIXER 1,112_ARC RETURN AIR NODE,54 ZONE VAV DEMAND OUTLET NODE,54 ZONE VAV
     Return Air Path Component Nodes,6,AIRLOOPHVAC:ZONEMIXER,AIR LOOP HVAC ZONE MIXER 1,114_OFFICES RETURN AIR NODE,54 ZONE VAV DEMAND OUTLET NODE,54 ZONE VAV
     Return Air Path Component Nodes,7,AIRLOOPHVAC:ZONEMIXER,AIR LOOP HVAC ZONE MIXER 1,EAST_CORRIDOR RETURN AIR NODE,54 ZONE VAV DEMAND OUTLET NODE,54 ZONE VAV
     Return Air Path Component Nodes,8,AIRLOOPHVAC:ZONEMIXER,AIR LOOP HVAC ZONE MIXER 1,104_STORAGE RETURN AIR NODE,54 ZONE VAV DEMAND OUTLET NODE,54 ZONE VAV
     Return Air Path Component Nodes,9,AIRLOOPHVAC:ZONEMIXER,AIR LOOP HVAC ZONE MIXER 1,109 RETURN AIR NODE,54 ZONE VAV DEMAND OUTLET NODE,54 ZONE VAV
     Return Air Path Component Nodes,10,AIRLOOPHVAC:ZONEMIXER,AIR LOOP HVAC ZONE MIXER 1,108 RETURN AIR NODE,54 ZONE VAV DEMAND OUTLET NODE,54 ZONE VAV
     Return Air Path Component Nodes,11,AIRLOOPHVAC:ZONEMIXER,AIR LOOP HVAC ZONE MIXER 1,SE_HALL_PIANO RETURN AIR NODE,54 ZONE VAV DEMAND OUTLET NODE,54 ZONE VAV
     Return Air Path Component Nodes,12,AIRLOOPHVAC:ZONEMIXER,AIR LOOP HVAC ZONE MIXER 1,EAST_SMALL_CORRIDOR RETURN AIR NODE,54 ZONE VAV DEMAND OUTLET NODE,54 ZONE VAV
     Return Air Path Component Nodes,13,AIRLOOPHVAC:ZONEMIXER,AIR LOOP HVAC ZONE MIXER 1,SOUTH_HALL RETURN AIR NODE,54 ZONE VAV DEMAND OUTLET NODE,54 ZONE VAV
     Return Air Path Component Nodes,14,AIRLOOPHVAC:ZONEMIXER,AIR LOOP HVAC ZONE MIXER 1,SMALL_WEST_CORRIDOR RETURN AIR NODE,54 ZONE VAV DEMAND OUTLET NODE,54 ZONE VAV
     Return Air Path Component Nodes,15,AIRLOOPHVAC:ZONEMIXER,AIR LOOP HVAC ZONE MIXER 1,WEST_OFFICE_BLOCK RETURN AIR NODE,54 ZONE VAV DEMAND OUTLET NODE,54 ZONE VAV
     Return Air Path Component Nodes,16,AIRLOOPHVAC:ZONEMIXER,AIR LOOP HVAC ZONE MIXER 1,100_AUDITORIUM RETURN AIR NODE,54 ZONE VAV DEMAND OUTLET NODE,54 ZONE VAV
     Return Air Path Component Nodes,17,AIRLOOPHVAC:ZONEMIXER,AIR LOOP HVAC ZONE MIXER 1,102_OFFICES RETURN AIR NODE,54 ZONE VAV DEMAND OUTLET NODE,54 ZONE VAV
     Return Air Path Component Nodes,18,AIRLOOPHVAC:ZONEMIXER,AIR LOOP HVAC ZONE MIXER 1,AUDITORIUM_LOBBY RETURN AIR NODE,54 ZONE VAV DEMAND OUTLET NODE,54 ZONE VAV
     Return Air Path Component Nodes,19,AIRLOOPHVAC:ZONEMIXER,AIR LOOP HVAC ZONE MIXER 1,UPSTAIRS_OFFICES RETURN AIR NODE,54 ZONE VAV DEMAND OUTLET NODE,54 ZONE VAV
     Return Air Path Component Nodes,20,AIRLOOPHVAC:ZONEMIXER,AIR LOOP HVAC ZONE MIXER 1,ROOM_13_B04291D5 RETURN AIR NODE,54 ZONE VAV DEMAND OUTLET NODE,54 ZONE VAV
     Return Air Path Component Nodes,21,AIRLOOPHVAC:ZONEMIXER,AIR LOOP HVAC ZONE MIXER 1,CLASSROOM_1_90B605A9 RETURN AIR NODE,54 ZONE VAV DEMAND OUTLET NODE,54 ZONE VAV
     Return Air Path Component Nodes,22,AIRLOOPHVAC:ZONEMIXER,AIR LOOP HVAC ZONE MIXER 1,CLASSROOM_2_ECCCF8B8 RETURN AIR NODE,54 ZONE VAV DEMAND OUTLET NODE,54 ZONE VAV
     Return Air Path Component Nodes,23,AIRLOOPHVAC:ZONEMIXER,AIR LOOP HVAC ZONE MIXER 1,CORRIDOR_1_FA1FE4C1 RETURN AIR NODE,54 ZONE VAV DEMAND OUTLET NODE,54 ZONE VAV
     Return Air Path Component Nodes,24,AIRLOOPHVAC:ZONEMIXER,AIR LOOP HVAC ZONE MIXER 1,CORRIDOR_2_CFBEC8AA RETURN AIR NODE,54 ZONE VAV DEMAND OUTLET NODE,54 ZONE VAV
     Return Air Path Component Nodes,25,AIRLOOPHVAC:ZONEMIXER,AIR LOOP HVAC ZONE MIXER 1,CORRIDOR_3_7621FA0C RETURN AIR NODE,54 ZONE VAV DEMAND OUTLET NODE,54 ZONE VAV
     Return Air Path Component Nodes,26,AIRLOOPHVAC:ZONEMIXER,AIR LOOP HVAC ZONE MIXER 1,CORRIDOR_4_9B747DDD RETURN AIR NODE,54 ZONE VAV DEMAND OUTLET NODE,54 ZONE VAV
     Return Air Path Component Nodes,27,AIRLOOPHVAC:ZONEMIXER,AIR LOOP HVAC ZONE MIXER 1,MECH_1_40A96879 RETURN AIR NODE,54 ZONE VAV DEMAND OUTLET NODE,54 ZONE VAV
     Return Air Path Component Nodes,28,AIRLOOPHVAC:ZONEMIXER,AIR LOOP HVAC ZONE MIXER 1,MECH_2_C6ABCC9A RETURN AIR NODE,54 ZONE VAV DEMAND OUTLET NODE,54 ZONE VAV
     Return Air Path Component Nodes,29,AIRLOOPHVAC:ZONEMIXER,AIR LOOP HVAC ZONE MIXER 1,MECH_3_6E799E0F RETURN AIR NODE,54 ZONE VAV DEMAND OUTLET NODE,54 ZONE VAV
     Return Air Path Component Nodes,30,AIRLOOPHVAC:ZONEMIXER,AIR LOOP HVAC ZONE MIXER 1,MECH_4_99985F88 RETURN AIR NODE,54 ZONE VAV DEMAND OUTLET NODE,54 ZONE VAV
     Return Air Path Component Nodes,31,AIRLOOPHVAC:ZONEMIXER,AIR LOOP HVAC ZONE MIXER 1,AUDITORIUMLOWER_0B49D193 RETURN AIR NODE,54 ZONE VAV DEMAND OUTLET NODE,54 ZONE VAV
     Return Air Path Component Nodes,32,AIRLOOPHVAC:ZONEMIXER,AIR LOOP HVAC ZONE MIXER 1,OFFICE_1_B1424685 RETURN AIR NODE,54 ZONE VAV DEMAND OUTLET NODE,54 ZONE VAV
     Return Air Path Component Nodes,33,AIRLOOPHVAC:ZONEMIXER,AIR LOOP HVAC ZONE MIXER 1,OFFICE_2_37CC8413 RETURN AIR NODE,54 ZONE VAV DEMAND OUTLET NODE,54 ZONE VAV
     Return Air Path Component Nodes,34,AIRLOOPHVAC:ZONEMIXER,AIR LOOP HVAC ZONE MIXER 1,OFFICE_3_93B2C9FF RETURN AIR NODE,54 ZONE VAV DEMAND OUTLET NODE,54 ZONE VAV
     Return Air Path Component Nodes,35,AIRLOOPHVAC:ZONEMIXER,AIR LOOP HVAC ZONE MIXER 1,OFFICE_4_3DD7EBAB RETURN AIR NODE,54 ZONE VAV DEMAND OUTLET NODE,54 ZONE VAV
     Return Air Path Component Nodes,36,AIRLOOPHVAC:ZONEMIXER,AIR LOOP HVAC ZONE MIXER 1,OFFICE_5_682148B2 RETURN AIR NODE,54 ZONE VAV DEMAND OUTLET NODE,54 ZONE VAV
     Return Air Path Component Nodes,37,AIRLOOPHVAC:ZONEMIXER,AIR LOOP HVAC ZONE MIXER 1,OFFICE_6_61DD9104 RETURN AIR NODE,54 ZONE VAV DEMAND OUTLET NODE,54 ZONE VAV
     Return Air Path Component Nodes,38,AIRLOOPHVAC:ZONEMIXER,AIR LOOP HVAC ZONE MIXER 1,RESTROOM_1_404313B9 RETURN AIR NODE,54 ZONE VAV DEMAND OUTLET NODE,54 ZONE VAV
     Return Air Path Component Nodes,39,AIRLOOPHVAC:ZONEMIXER,AIR LOOP HVAC ZONE MIXER 1,RESTROOM_2_A377B4B3 RETURN AIR NODE,54 ZONE VAV DEMAND OUTLET NODE,54 ZONE VAV
     Return Air Path Component Nodes,40,AIRLOOPHVAC:ZONEMIXER,AIR LOOP HVAC ZONE MIXER 1,RESTROOM_3_C201E5F7 RETURN AIR NODE,54 ZONE VAV DEMAND OUTLET NODE,54 ZONE VAV
     Return Air Path Component Nodes,41,AIRLOOPHVAC:ZONEMIXER,AIR LOOP HVAC ZONE MIXER 1,RESTROOM_4_33BABDA2 RETURN AIR NODE,54 ZONE VAV DEMAND OUTLET NODE,54 ZONE VAV
     Return Air Path Component Nodes,42,AIRLOOPHVAC:ZONEMIXER,AIR LOOP HVAC ZONE MIXER 1,RESTROOM_5_911A78E2 RETURN AIR NODE,54 ZONE VAV DEMAND OUTLET NODE,54 ZONE VAV
     Return Air Path Component Nodes,43,AIRLOOPHVAC:ZONEMIXER,AIR LOOP HVAC ZONE MIXER 1,RESTROOM_6_A019D741 RETURN AIR NODE,54 ZONE VAV DEMAND OUTLET NODE,54 ZONE VAV
     Return Air Path Component Nodes,44,AIRLOOPHVAC:ZONEMIXER,AIR LOOP HVAC ZONE MIXER 1,STAIR_1_1681051F RETURN AIR NODE,54 ZONE VAV DEMAND OUTLET NODE,54 ZONE VAV
     Return Air Path Component Nodes,45,AIRLOOPHVAC:ZONEMIXER,AIR LOOP HVAC ZONE MIXER 1,STAIR_2_976E6FD5 RETURN AIR NODE,54 ZONE VAV DEMAND OUTLET NODE,54 ZONE VAV
     Return Air Path Component Nodes,46,AIRLOOPHVAC:ZONEMIXER,AIR LOOP HVAC ZONE MIXER 1,STAIR_3_8F089848 RETURN AIR NODE,54 ZONE VAV DEMAND OUTLET NODE,54 ZONE VAV
     Return Air Path Component Nodes,47,AIRLOOPHVAC:ZONEMIXER,AIR LOOP HVAC ZONE MIXER 1,KITCHEN_1_55B9A759 RETURN AIR NODE,54 ZONE VAV DEMAND OUTLET NODE,54 ZONE VAV
     Return Air Path Component Nodes,48,AIRLOOPHVAC:ZONEMIXER,AIR LOOP HVAC ZONE MIXER 1,KITCHEN_2_B940211D RETURN AIR NODE,54 ZONE VAV DEMAND OUTLET NODE,54 ZONE VAV
     Return Air Path Component Nodes,49,AIRLOOPHVAC:ZONEMIXER,AIR LOOP HVAC ZONE MIXER 1,KITCHEN_3_3E9A0FB8 RETURN AIR NODE,54 ZONE VAV DEMAND OUTLET NODE,54 ZONE VAV
     Return Air Path Component Nodes,50,AIRLOOPHVAC:ZONEMIXER,AIR LOOP HVAC ZONE MIXER 1,BOGDINING_E25F401A RETURN AIR NODE,54 ZONE VAV DEMAND OUTLET NODE,54 ZONE VAV
     Return Air Path Component Nodes,51,AIRLOOPHVAC:ZONEMIXER,AIR LOOP HVAC ZONE MIXER 1,BOGPLAY_1_D1F076F9 RETURN AIR NODE,54 ZONE VAV DEMAND OUTLET NODE,54 ZONE VAV
     Return Air Path Component Nodes,52,AIRLOOPHVAC:ZONEMIXER,AIR LOOP HVAC ZONE MIXER 1,BOGPLAY_2_D145E14C RETURN AIR NODE,54 ZONE VAV DEMAND OUTLET NODE,54 ZONE VAV
     Return Air Path Component Nodes,53,AIRLOOPHVAC:ZONEMIXER,AIR LOOP HVAC ZONE MIXER 1,BOGPLAY_1_B863644B RETURN AIR NODE,54 ZONE VAV DEMAND OUTLET NODE,54 ZONE VAV
     Return Air Path Component Nodes,54,AIRLOOPHVAC:ZONEMIXER,AIR LOOP HVAC ZONE MIXER 1,BOGPLAY_2_4B3AE9FE RETURN AIR NODE,54 ZONE VAV DEMAND OUTLET NODE,54 ZONE VAV
! <#Nodes on Return Air Path>,<Number of Nodes>
! <Return Air Path Node>,<Node Type>,<Node Count>,<Node Name>,<AirLoopHVAC Name>
   #Nodes on Return Air Path,55
   Return Air Path Node,Outlet Node,1,54 ZONE VAV DEMAND OUTLET NODE,54 ZONE VAV
   Return Air Path Node,Inlet Node,2,113_CAREER_SERVICES RETURN AIR NODE,54 ZONE VAV
   Return Air Path Node,Inlet Node,3,NORTH_HALL RETURN AIR NODE,54 ZONE VAV
   Return Air Path Node,Inlet Node,4,WEST_CORRIDOR RETURN AIR NODE,54 ZONE VAV
   Return Air Path Node,Inlet Node,5,RESTROOMS RETURN AIR NODE,54 ZONE VAV
   Return Air Path Node,Inlet Node,6,112_ARC RETURN AIR NODE,54 ZONE VAV
   Return Air Path Node,Inlet Node,7,114_OFFICES RETURN AIR NODE,54 ZONE VAV
   Return Air Path Node,Inlet Node,8,EAST_CORRIDOR RETURN AIR NODE,54 ZONE VAV
   Return Air Path Node,Inlet Node,9,104_STORAGE RETURN AIR NODE,54 ZONE VAV
   Return Air Path Node,Inlet Node,10,109 RETURN AIR NODE,54 ZONE VAV
   Return Air Path Node,Inlet Node,11,108 RETURN AIR NODE,54 ZONE VAV
   Return Air Path Node,Inlet Node,12,SE_HALL_PIANO RETURN AIR NODE,54 ZONE VAV
   Return Air Path Node,Inlet Node,13,EAST_SMALL_CORRIDOR RETURN AIR NODE,54 ZONE VAV
   Return Air Path Node,Inlet Node,14,SOUTH_HALL RETURN AIR NODE,54 ZONE VAV
   Return Air Path Node,Inlet Node,15,SMALL_WEST_CORRIDOR RETURN AIR NODE,54 ZONE VAV
   Return Air Path Node,Inlet Node,16,WEST_OFFICE_BLOCK RETURN AIR NODE,54 ZONE VAV
   Return Air Path Node,Inlet Node,17,100_AUDITORIUM RETURN AIR NODE,54 ZONE VAV
   Return Air Path Node,Inlet Node,18,102_OFFICES RETURN AIR NODE,54 ZONE VAV
   Return Air Path Node,Inlet Node,19,AUDITORIUM_LOBBY RETURN AIR NODE,54 ZONE VAV
   Return Air Path Node,Inlet Node,20,UPSTAIRS_OFFICES RETURN AIR NODE,54 ZONE VAV
   Return Air Path Node,Inlet Node,21,ROOM_13_B04291D5 RETURN AIR NODE,54 ZONE VAV
   Return Air Path Node,Inlet Node,22,CLASSROOM_1_90B605A9 RETURN AIR NODE,54 ZONE VAV
   Return Air Path Node,Inlet Node,23,CLASSROOM_2_ECCCF8B8 RETURN AIR NODE,54 ZONE VAV
   Return Air Path Node,Inlet Node,24,CORRIDOR_1_FA1FE4C1 RETURN AIR NODE,54 ZONE VAV
   Return Air Path Node,Inlet Node,25,CORRIDOR_2_CFBEC8AA RETURN AIR NODE,54 ZONE VAV
   Return Air Path Node,Inlet Node,26,CORRIDOR_3_7621FA0C RETURN AIR NODE,54 ZONE VAV
   Return Air Path Node,Inlet Node,27,CORRIDOR_4_9B747DDD RETURN AIR NODE,54 ZONE VAV
   Return Air Path Node,Inlet Node,28,MECH_1_40A96879 RETURN AIR NODE,54 ZONE VAV
   Return Air Path Node,Inlet Node,29,MECH_2_C6ABCC9A RETURN AIR NODE,54 ZONE VAV
   Return Air Path Node,Inlet Node,30,MECH_3_6E799E0F RETURN AIR NODE,54 ZONE VAV
   Return Air Path Node,Inlet Node,31,MECH_4_99985F88 RETURN AIR NODE,54 ZONE VAV
   Return Air Path Node,Inlet Node,32,AUDITORIUMLOWER_0B49D193 RETURN AIR NODE,54 ZONE VAV
   Return Air Path Node,Inlet Node,33,OFFICE_1_B1424685 RETURN AIR NODE,54 ZONE VAV
   Return Air Path Node,Inlet Node,34,OFFICE_2_37CC8413 RETURN AIR NODE,54 ZONE VAV
   Return Air Path Node,Inlet Node,35,OFFICE_3_93B2C9FF RETURN AIR NODE,54 ZONE VAV
   Return Air Path Node,Inlet Node,36,OFFICE_4_3DD7EBAB RETURN AIR NODE,54 ZONE VAV
   Return Air Path Node,Inlet Node,37,OFFICE_5_682148B2 RETURN AIR NODE,54 ZONE VAV
   Return Air Path Node,Inlet Node,38,OFFICE_6_61DD9104 RETURN AIR NODE,54 ZONE VAV
   Return Air Path Node,Inlet Node,39,RESTROOM_1_404313B9 RETURN AIR NODE,54 ZONE VAV
   Return Air Path Node,Inlet Node,40,RESTROOM_2_A377B4B3 RETURN AIR NODE,54 ZONE VAV
   Return Air Path Node,Inlet Node,41,RESTROOM_3_C201E5F7 RETURN AIR NODE,54 ZONE VAV
   Return Air Path Node,Inlet Node,42,RESTROOM_4_33BABDA2 RETURN AIR NODE,54 ZONE VAV
   Return Air Path Node,Inlet Node,43,RESTROOM_5_911A78E2 RETURN AIR NODE,54 ZONE VAV
   Return Air Path Node,Inlet Node,44,RESTROOM_6_A019D741 RETURN AIR NODE,54 ZONE VAV
   Return Air Path Node,Inlet Node,45,STAIR_1_1681051F RETURN AIR NODE,54 ZONE VAV
   Return Air Path Node,Inlet Node,46,STAIR_2_976E6FD5 RETURN AIR NODE,54 ZONE VAV
   Return Air Path Node,Inlet Node,47,STAIR_3_8F089848 RETURN AIR NODE,54 ZONE VAV
   Return Air Path Node,Inlet Node,48,KITCHEN_1_55B9A759 RETURN AIR NODE,54 ZONE VAV
   Return Air Path Node,Inlet Node,49,KITCHEN_2_B940211D RETURN AIR NODE,54 ZONE VAV
   Return Air Path Node,Inlet Node,50,KITCHEN_3_3E9A0FB8 RETURN AIR NODE,54 ZONE VAV
   Return Air Path Node,Inlet Node,51,BOGDINING_E25F401A RETURN AIR NODE,54 ZONE VAV
   Return Air Path Node,Inlet Node,52,BOGPLAY_1_D1F076F9 RETURN AIR NODE,54 ZONE VAV
   Return Air Path Node,Inlet Node,53,BOGPLAY_2_D145E14C RETURN AIR NODE,54 ZONE VAV
   Return Air Path Node,Inlet Node,54,BOGPLAY_1_B863644B RETURN AIR NODE,54 ZONE VAV
   Return Air Path Node,Inlet Node,55,BOGPLAY_2_4B3AE9FE RETURN AIR NODE,54 ZONE VAV
! ===============================================================
! #Outdoor Air Nodes,<Number of Outdoor Air Nodes>
 #Outdoor Air Nodes,2
! <Outdoor Air Node>,<NodeNumber>,<Node Name>
 Outdoor Air Node,344,54 ZONE VAV OUTDOOR AIR NODE
 Outdoor Air Node,345,MODEL OUTDOOR AIR NODE
! ===============================================================
! <#Component Sets>,<Number of Component Sets>
 #Component Sets,200
! <Component Set>,<Component Set Count>,<Parent Object Type>,<Parent Object Name>,<Component Type>,<Component Name>,<Inlet Node ID>,<Outlet Node ID>,<Description>
 Component Set,1,BRANCH,54 ZONE VAV MAIN BRANCH,AIRLOOPHVAC:OUTDOORAIRSYSTEM,54 ZONE VAV OA SYSTEM,54 ZONE VAV SUPPLY INLET NODE,54 ZONE VAV MIXED AIR NODE,Air Nodes
 Component Set,2,BRANCH,54 ZONE VAV MAIN BRANCH,COIL:COOLING:WATER,54 ZONE VAV CLG COIL,54 ZONE VAV MIXED AIR NODE,54 ZONE VAV CLG COIL OUTLET AIR NODE,Air Nodes
 Component Set,3,BRANCH,54 ZONE VAV MAIN BRANCH,COIL:HEATING:WATER,54 ZONE VAV MAIN HTG COIL,54 ZONE VAV CLG COIL OUTLET AIR NODE,54 ZONE VAV MAIN HTG COIL OUTLET AIR NODE,Air Nodes
 Component Set,4,BRANCH,54 ZONE VAV MAIN BRANCH,FAN:VARIABLEVOLUME,54 ZONE VAV FAN,54 ZONE VAV MAIN HTG COIL OUTLET AIR NODE,54 ZONE VAV SUPPLY OUTLET NODE,Air Nodes
 Component Set,5,BRANCH,CHILLED WATER LOOP SUPPLY INLET BRANCH,PUMP:VARIABLESPEED,CHILLED WATER LOOP PUMP,CHILLED WATER LOOP SUPPLY INLET NODE,CHILLED WATER LOOP PUMP OUTLET WATER NODE,Water Nodes
 Component Set,6,BRANCH,CHILLED WATER LOOP SUPPLY BRANCH 1,DISTRICTCOOLING,PURCHASED COOLING,PURCHASED COOLING INLET WATER NODE,PURCHASED COOLING OUTLET WATER NODE,Chilled Water Nodes
 Component Set,7,BRANCH,CHILLED WATER LOOP SUPPLY BRANCH 2,PIPE:ADIABATIC,CHILLED WATER LOOP CHILLER BYPASS,CHILLED WATER LOOP CHILLER BYPASS INLET WATER NODE,CHILLED WATER LOOP CHILLER BYPASS OUTLET WATER NODE,Pipe Nodes
 Component Set,8,BRANCH,CHILLED WATER LOOP SUPPLY OUTLET BRANCH,PIPE:ADIABATIC,CHILLED WATER LOOP SUPPLY OUTLET,CHILLED WATER LOOP SUPPLY OUTLET INLET WATER NODE,CHILLED WATER LOOP SUPPLY OUTLET NODE,Pipe Nodes
 Component Set,9,BRANCH,CHILLED WATER LOOP DEMAND INLET BRANCH,PIPE:ADIABATIC,CHILLED WATER LOOP DEMAND INLET,CHILLED WATER LOOP DEMAND INLET NODE,CHILLED WATER LOOP DEMAND INLET OUTLET WATER NODE,Pipe Nodes
 Component Set,10,BRANCH,CHILLED WATER LOOP DEMAND BRANCH 1,PIPE:ADIABATIC,CHILLED WATER LOOP COIL BYPASS,CHILLED WATER LOOP COIL BYPASS INLET WATER NODE,CHILLED WATER LOOP COIL BYPASS OUTLET WATER NODE,Pipe Nodes
 Component Set,11,BRANCH,CHILLED WATER LOOP DEMAND BRANCH 2,COIL:COOLING:WATER,54 ZONE VAV CLG COIL,54 ZONE VAV CLG COIL INLET WATER NODE,54 ZONE VAV CLG COIL OUTLET WATER NODE,Water Nodes
 Component Set,12,BRANCH,CHILLED WATER LOOP DEMAND BYPASS BRANCH,PIPE:ADIABATIC,CHILLED WATER LOOP DEMAND BYPASS PIPE,CHILLED WATER LOOP DEMAND BYPASS PIPE INLET NODE,CHILLED WATER LOOP DEMAND BYPASS PIPE OUTLET NODE,Pipe Nodes
 Component Set,13,BRANCH,CHILLED WATER LOOP DEMAND OUTLET BRANCH,PIPE:ADIABATIC,CHILLED WATER LOOP DEMAND OUTLET,CHILLED WATER LOOP DEMAND OUTLET INLET WATER NODE,CHILLED WATER LOOP DEMAND OUTLET NODE,Pipe Nodes
 Component Set,14,BRANCH,HOT WATER LOOP SUPPLY INLET BRANCH,PUMP:VARIABLESPEED,HOT WATER LOOP PUMP,HOT WATER LOOP SUPPLY INLET NODE,HOT WATER LOOP PUMP OUTLET WATER NODE,Water Nodes
 Component Set,15,BRANCH,HOT WATER LOOP SUPPLY BRANCH 1,DISTRICTHEATING,HOT WATER LOOP DISTRICT HEATING,HOT WATER LOOP DISTRICT HEATING INLET WATER NODE,HOT WATER LOOP DISTRICT HEATING OUTLET WATER NODE,Hot Water Nodes
 Component Set,16,BRANCH,HOT WATER LOOP SUPPLY BRANCH 2,PIPE:ADIABATIC,HOT WATER LOOP SUPPLY EQUIPMENT BYPASS,HOT WATER LOOP SUPPLY EQUIPMENT BYPASS INLET WATER NODE,HOT WATER LOOP SUPPLY EQUIPMENT BYPASS OUTLET WATER NODE,Pipe Nodes
 Component Set,17,BRANCH,HOT WATER LOOP SUPPLY OUTLET BRANCH,PIPE:ADIABATIC,HOT WATER LOOP SUPPLY OUTLET,HOT WATER LOOP SUPPLY OUTLET INLET WATER NODE,HOT WATER LOOP SUPPLY OUTLET NODE,Pipe Nodes
 Component Set,18,BRANCH,HOT WATER LOOP DEMAND INLET BRANCH,PIPE:ADIABATIC,HOT WATER LOOP DEMAND INLET,HOT WATER LOOP DEMAND INLET NODE,HOT WATER LOOP DEMAND INLET OUTLET WATER NODE,Pipe Nodes
 Component Set,19,BRANCH,HOT WATER LOOP DEMAND BRANCH 1,PIPE:ADIABATIC,HOT WATER LOOP COIL BYPASS,HOT WATER LOOP COIL BYPASS INLET WATER NODE,HOT WATER LOOP COIL BYPASS OUTLET WATER NODE,Pipe Nodes
 Component Set,20,BRANCH,HOT WATER LOOP DEMAND BRANCH 2,COIL:HEATING:WATER,54 ZONE VAV MAIN HTG COIL,54 ZONE VAV MAIN HTG COIL INLET WATER NODE,54 ZONE VAV MAIN HTG COIL OUTLET WATER NODE,Water Nodes
 Component Set,21,BRANCH,HOT WATER LOOP DEMAND BRANCH 3,COIL:HEATING:WATER,113_CAREER_SERVICES REHEAT COIL,113_CAREER_SERVICES REHEAT COIL INLET WATER NODE,113_CAREER_SERVICES REHEAT COIL OUTLET WATER NODE,Water Nodes
[...]
 Non-Parent Node Connection,CLASSROOM_2_ECCCF8B8 VAV TERMINAL DAMPER OUTLET,AIRTERMINAL:SINGLEDUCT:VAV:REHEAT,CLASSROOM_2_ECCCF8B8 VAV TERMINAL,Outlet,1
 Non-Parent Node Connection,CLASSROOM_2_ECCCF8B8 VAV TERMINAL INLET AIR NODE,AIRTERMINAL:SINGLEDUCT:VAV:REHEAT,CLASSROOM_2_ECCCF8B8 VAV TERMINAL,Inlet,1
 Non-Parent Node Connection,CORRIDOR_1_FA1FE4C1 VAV TERMINAL DAMPER OUTLET,AIRTERMINAL:SINGLEDUCT:VAV:REHEAT,CORRIDOR_1_FA1FE4C1 VAV TERMINAL,Outlet,1
 Non-Parent Node Connection,CORRIDOR_1_FA1FE4C1 VAV TERMINAL INLET AIR NODE,AIRTERMINAL:SINGLEDUCT:VAV:REHEAT,CORRIDOR_1_FA1FE4C1 VAV TERMINAL,Inlet,1
 Non-Parent Node Connection,CORRIDOR_2_CFBEC8AA VAV TERMINAL DAMPER OUTLET,AIRTERMINAL:SINGLEDUCT:VAV:REHEAT,CORRIDOR_2_CFBEC8AA VAV TERMINAL,Outlet,1
 Non-Parent Node Connection,CORRIDOR_2_CFBEC8AA VAV TERMINAL INLET AIR NODE,AIRTERMINAL:SINGLEDUCT:VAV:REHEAT,CORRIDOR_2_CFBEC8AA VAV TERMINAL,Inlet,1
 Non-Parent Node Connection,CORRIDOR_3_7621FA0C VAV TERMINAL DAMPER OUTLET,AIRTERMINAL:SINGLEDUCT:VAV:REHEAT,CORRIDOR_3_7621FA0C VAV TERMINAL,Outlet,1
 Non-Parent Node Connection,CORRIDOR_3_7621FA0C VAV TERMINAL INLET AIR NODE,AIRTERMINAL:SINGLEDUCT:VAV:REHEAT,CORRIDOR_3_7621FA0C VAV TERMINAL,Inlet,1
 Non-Parent Node Connection,CORRIDOR_4_9B747DDD VAV TERMINAL DAMPER OUTLET,AIRTERMINAL:SINGLEDUCT:VAV:REHEAT,CORRIDOR_4_9B747DDD VAV TERMINAL,Outlet,1
 Non-Parent Node Connection,CORRIDOR_4_9B747DDD VAV TERMINAL INLET AIR NODE,AIRTERMINAL:SINGLEDUCT:VAV:REHEAT,CORRIDOR_4_9B747DDD VAV TERMINAL,Inlet,1
 Non-Parent Node Connection,EAST_CORRIDOR VAV TERMINAL DAMPER OUTLET,AIRTERMINAL:SINGLEDUCT:VAV:REHEAT,EAST_CORRIDOR VAV TERMINAL,Outlet,1
 Non-Parent Node Connection,EAST_CORRIDOR VAV TERMINAL INLET AIR NODE,AIRTERMINAL:SINGLEDUCT:VAV:REHEAT,EAST_CORRIDOR VAV TERMINAL,Inlet,1
 Non-Parent Node Connection,EAST_SMALL_CORRIDOR VAV TERMINAL DAMPER OUTLET,AIRTERMINAL:SINGLEDUCT:VAV:REHEAT,EAST_SMALL_CORRIDOR VAV TERMINAL,Outlet,1
 Non-Parent Node Connection,EAST_SMALL_CORRIDOR VAV TERMINAL INLET AIR NODE,AIRTERMINAL:SINGLEDUCT:VAV:REHEAT,EAST_SMALL_CORRIDOR VAV TERMINAL,Inlet,1
 Non-Parent Node Connection,KITCHEN_1_55B9A759 VAV TERMINAL DAMPER OUTLET,AIRTERMINAL:SINGLEDUCT:VAV:REHEAT,KITCHEN_1_55B9A759 VAV TERMINAL,Outlet,1
 Non-Parent Node Connection,KITCHEN_1_55B9A759 VAV TERMINAL INLET AIR NODE,AIRTERMINAL:SINGLEDUCT:VAV:REHEAT,KITCHEN_1_55B9A759 VAV TERMINAL,Inlet,1
 Non-Parent Node Connection,KITCHEN_2_B940211D VAV TERMINAL DAMPER OUTLET,AIRTERMINAL:SINGLEDUCT:VAV:REHEAT,KITCHEN_2_B940211D VAV TERMINAL,Outlet,1
 Non-Parent Node Connection,KITCHEN_2_B940211D VAV TERMINAL INLET AIR NODE,AIRTERMINAL:SINGLEDUCT:VAV:REHEAT,KITCHEN_2_B940211D VAV TERMINAL,Inlet,1
 Non-Parent Node Connection,KITCHEN_3_3E9A0FB8 VAV TERMINAL DAMPER OUTLET,AIRTERMINAL:SINGLEDUCT:VAV:REHEAT,KITCHEN_3_3E9A0FB8 VAV TERMINAL,Outlet,1
 Non-Parent Node Connection,KITCHEN_3_3E9A0FB8 VAV TERMINAL INLET AIR NODE,AIRTERMINAL:SINGLEDUCT:VAV:REHEAT,KITCHEN_3_3E9A0FB8 VAV TERMINAL,Inlet,1
 Non-Parent Node Connection,MECH_1_40A96879 VAV TERMINAL DAMPER OUTLET,AIRTERMINAL:SINGLEDUCT:VAV:REHEAT,MECH_1_40A96879 VAV TERMINAL,Outlet,1
 Non-Parent Node Connection,MECH_1_40A96879 VAV TERMINAL INLET AIR NODE,AIRTERMINAL:SINGLEDUCT:VAV:REHEAT,MECH_1_40A96879 VAV TERMINAL,Inlet,1
 Non-Parent Node Connection,MECH_2_C6ABCC9A VAV TERMINAL DAMPER OUTLET,AIRTERMINAL:SINGLEDUCT:VAV:REHEAT,MECH_2_C6ABCC9A VAV TERMINAL,Outlet,1
 Non-Parent Node Connection,MECH_2_C6ABCC9A VAV TERMINAL INLET AIR NODE,AIRTERMINAL:SINGLEDUCT:VAV:REHEAT,MECH_2_C6ABCC9A VAV TERMINAL,Inlet,1
 Non-Parent Node Connection,MECH_3_6E799E0F VAV TERMINAL DAMPER OUTLET,AIRTERMINAL:SINGLEDUCT:VAV:REHEAT,MECH_3_6E799E0F VAV TERMINAL,Outlet,1
 Non-Parent Node Connection,MECH_3_6E799E0F VAV TERMINAL INLET AIR NODE,AIRTERMINAL:SINGLEDUCT:VAV:REHEAT,MECH_3_6E799E0F VAV TERMINAL,Inlet,1
 Non-Parent Node Connection,MECH_4_99985F88 VAV TERMINAL DAMPER OUTLET,AIRTERMINAL:SINGLEDUCT:VAV:REHEAT,MECH_4_99985F88 VAV TERMINAL,Outlet,1
 Non-Parent Node Connection,MECH_4_99985F88 VAV TERMINAL INLET AIR NODE,AIRTERMINAL:SINGLEDUCT:VAV:REHEAT,MECH_4_99985F88 VAV TERMINAL,Inlet,1
 Non-Parent Node Connection,NORTH_HALL VAV TERMINAL DAMPER OUTLET,AIRTERMINAL:SINGLEDUCT:VAV:REHEAT,NORTH_HALL VAV TERMINAL,Outlet,1
 Non-Parent Node Connection,NORTH_HALL VAV TERMINAL INLET AIR NODE,AIRTERMINAL:SINGLEDUCT:VAV:REHEAT,NORTH_HALL VAV TERMINAL,Inlet,1
 Non-Parent Node Connection,OFFICE_1_B1424685 VAV TERMINAL DAMPER OUTLET,AIRTERMINAL:SINGLEDUCT:VAV:REHEAT,OFFICE_1_B1424685 VAV TERMINAL,Outlet,1
 Non-Parent Node Connection,OFFICE_1_B1424685 VAV TERMINAL INLET AIR NODE,AIRTERMINAL:SINGLEDUCT:VAV:REHEAT,OFFICE_1_B1424685 VAV TERMINAL,Inlet,1
 Non-Parent Node Connection,OFFICE_2_37CC8413 VAV TERMINAL DAMPER OUTLET,AIRTERMINAL:SINGLEDUCT:VAV:REHEAT,OFFICE_2_37CC8413 VAV TERMINAL,Outlet,1
 Non-Parent Node Connection,OFFICE_2_37CC8413 VAV TERMINAL INLET AIR NODE,AIRTERMINAL:SINGLEDUCT:VAV:REHEAT,OFFICE_2_37CC8413 VAV TERMINAL,Inlet,1
 Non-Parent Node Connection,OFFICE_3_93B2C9FF VAV TERMINAL DAMPER OUTLET,AIRTERMINAL:SINGLEDUCT:VAV:REHEAT,OFFICE_3_93B2C9FF VAV TERMINAL,Outlet,1
 Non-Parent Node Connection,OFFICE_3_93B2C9FF VAV TERMINAL INLET AIR NODE,AIRTERMINAL:SINGLEDUCT:VAV:REHEAT,OFFICE_3_93B2C9FF VAV TERMINAL,Inlet,1
 Non-Parent Node Connection,OFFICE_4_3DD7EBAB VAV TERMINAL DAMPER OUTLET,AIRTERMINAL:SINGLEDUCT:VAV:REHEAT,OFFICE_4_3DD7EBAB VAV TERMINAL,Outlet,1
 Non-Parent Node Connection,OFFICE_4_3DD7EBAB VAV TERMINAL INLET AIR NODE,AIRTERMINAL:SINGLEDUCT:VAV:REHEAT,OFFICE_4_3DD7EBAB VAV TERMINAL,Inlet,1
 Non-Parent Node Connection,OFFICE_5_682148B2 VAV TERMINAL DAMPER OUTLET,AIRTERMINAL:SINGLEDUCT:VAV:REHEAT,OFFICE_5_682148B2 VAV TERMINAL,Outlet,1
 Non-Parent Node Connection,OFFICE_5_682148B2 VAV TERMINAL INLET AIR NODE,AIRTERMINAL:SINGLEDUCT:VAV:REHEAT,OFFICE_5_682148B2 VAV TERMINAL,Inlet,1
 Non-Parent Node Connection,OFFICE_6_61DD9104 VAV TERMINAL DAMPER OUTLET,AIRTERMINAL:SINGLEDUCT:VAV:REHEAT,OFFICE_6_61DD9104 VAV TERMINAL,Outlet,1
 Non-Parent Node Connection,OFFICE_6_61DD9104 VAV TERMINAL INLET AIR NODE,AIRTERMINAL:SINGLEDUCT:VAV:REHEAT,OFFICE_6_61DD9104 VAV TERMINAL,Inlet,1
 Non-Parent Node Connection,RESTROOMS VAV TERMINAL DAMPER OUTLET,AIRTERMINAL:SINGLEDUCT:VAV:REHEAT,RESTROOMS VAV TERMINAL,Outlet,1
 Non-Parent Node Connection,RESTROOMS VAV TERMINAL INLET AIR NODE,AIRTERMINAL:SINGLEDUCT:VAV:REHEAT,RESTROOMS VAV TERMINAL,Inlet,1
 Non-Parent Node Connection,RESTROOM_1_404313B9 VAV TERMINAL DAMPER OUTLET,AIRTERMINAL:SINGLEDUCT:VAV:REHEAT,RESTROOM_1_404313B9 VAV TERMINAL,Outlet,1
 Non-Parent Node Connection,RESTROOM_1_404313B9 VAV TERMINAL INLET AIR NODE,AIRTERMINAL:SINGLEDUCT:VAV:REHEAT,RESTROOM_1_404313B9 VAV TERMINAL,Inlet,1
 Non-Parent Node Connection,RESTROOM_2_A377B4B3 VAV TERMINAL DAMPER OUTLET,AIRTERMINAL:SINGLEDUCT:VAV:REHEAT,RESTROOM_2_A377B4B3 VAV TERMINAL,Outlet,1
 Non-Parent Node Connection,RESTROOM_2_A377B4B3 VAV TERMINAL INLET AIR NODE,AIRTERMINAL:SINGLEDUCT:VAV:REHEAT,RESTROOM_2_A377B4B3 VAV TERMINAL,Inlet,1
 Non-Parent Node Connection,RESTROOM_3_C201E5F7 VAV TERMINAL DAMPER OUTLET,AIRTERMINAL:SINGLEDUCT:VAV:REHEAT,RESTROOM_3_C201E5F7 VAV TERMINAL,Outlet,1
 Non-Parent Node Connection,RESTROOM_3_C201E5F7 VAV TERMINAL INLET AIR NODE,AIRTERMINAL:SINGLEDUCT:VAV:REHEAT,RESTROOM_3_C201E5F7 VAV TERMINAL,Inlet,1
 Non-Parent Node Connection,RESTROOM_4_33BABDA2 VAV TERMINAL DAMPER OUTLET,AIRTERMINAL:SINGLEDUCT:VAV:REHEAT,RESTROOM_4_33BABDA2 VAV TERMINAL,Outlet,1
 Non-Parent Node Connection,RESTROOM_4_33BABDA2 VAV TERMINAL INLET AIR NODE,AIRTERMINAL:SINGLEDUCT:VAV:REHEAT,RESTROOM_4_33BABDA2 VAV TERMINAL,Inlet,1
 Non-Parent Node Connection,RESTROOM_5_911A78E2 VAV TERMINAL DAMPER OUTLET,AIRTERMINAL:SINGLEDUCT:VAV:REHEAT,RESTROOM_5_911A78E2 VAV TERMINAL,Outlet,1
 Non-Parent Node Connection,RESTROOM_5_911A78E2 VAV TERMINAL INLET AIR NODE,AIRTERMINAL:SINGLEDUCT:VAV:REHEAT,RESTROOM_5_911A78E2 VAV TERMINAL,Inlet,1
 Non-Parent Node Connection,RESTROOM_6_A019D741 VAV TERMINAL DAMPER OUTLET,AIRTERMINAL:SINGLEDUCT:VAV:REHEAT,RESTROOM_6_A019D741 VAV TERMINAL,Outlet,1
 Non-Parent Node Connection,RESTROOM_6_A019D741 VAV TERMINAL INLET AIR NODE,AIRTERMINAL:SINGLEDUCT:VAV:REHEAT,RESTROOM_6_A019D741 VAV TERMINAL,Inlet,1
 Non-Parent Node Connection,ROOM_13_B04291D5 VAV TERMINAL DAMPER OUTLET,AIRTERMINAL:SINGLEDUCT:VAV:REHEAT,ROOM_13_B04291D5 VAV TERMINAL,Outlet,1
 Non-Parent Node Connection,ROOM_13_B04291D5 VAV TERMINAL INLET AIR NODE,AIRTERMINAL:SINGLEDUCT:VAV:REHEAT,ROOM_13_B04291D5 VAV TERMINAL,Inlet,1
 Non-Parent Node Connection,SE_HALL_PIANO VAV TERMINAL DAMPER OUTLET,AIRTERMINAL:SINGLEDUCT:VAV:REHEAT,SE_HALL_PIANO VAV TERMINAL,Outlet,1
 Non-Parent Node Connection,SE_HALL_PIANO VAV TERMINAL INLET AIR NODE,AIRTERMINAL:SINGLEDUCT:VAV:REHEAT,SE_HALL_PIANO VAV TERMINAL,Inlet,1
 Non-Parent Node Connection,SMALL_WEST_CORRIDOR VAV TERMINAL DAMPER OUTLET,AIRTERMINAL:SINGLEDUCT:VAV:REHEAT,SMALL_WEST_CORRIDOR VAV TERMINAL,Outlet,1
 Non-Parent Node Connection,SMALL_WEST_CORRIDOR VAV TERMINAL INLET AIR NODE,AIRTERMINAL:SINGLEDUCT:VAV:REHEAT,SMALL_WEST_CORRIDOR VAV TERMINAL,Inlet,1
 Non-Parent Node Connection,SOUTH_HALL VAV TERMINAL DAMPER OUTLET,AIRTERMINAL:SINGLEDUCT:VAV:REHEAT,SOUTH_HALL VAV TERMINAL,Outlet,1
 Non-Parent Node Connection,SOUTH_HALL VAV TERMINAL INLET AIR NODE,AIRTERMINAL:SINGLEDUCT:VAV:REHEAT,SOUTH_HALL VAV TERMINAL,Inlet,1
 Non-Parent Node Connection,STAIR_1_1681051F VAV TERMINAL DAMPER OUTLET,AIRTERMINAL:SINGLEDUCT:VAV:REHEAT,STAIR_1_1681051F VAV TERMINAL,Outlet,1
 Non-Parent Node Connection,STAIR_1_1681051F VAV TERMINAL INLET AIR NODE,AIRTERMINAL:SINGLEDUCT:VAV:REHEAT,STAIR_1_1681051F VAV TERMINAL,Inlet,1
 Non-Parent Node Connection,STAIR_2_976E6FD5 VAV TERMINAL DAMPER OUTLET,AIRTERMINAL:SINGLEDUCT:VAV:REHEAT,STAIR_2_976E6FD5 VAV TERMINAL,Outlet,1
 Non-Parent Node Connection,STAIR_2_976E6FD5 VAV TERMINAL INLET AIR NODE,AIRTERMINAL:SINGLEDUCT:VAV:REHEAT,STAIR_2_976E6FD5 VAV TERMINAL,Inlet,1
 Non-Parent Node Connection,STAIR_3_8F089848 VAV TERMINAL DAMPER OUTLET,AIRTERMINAL:SINGLEDUCT:VAV:REHEAT,STAIR_3_8F089848 VAV TERMINAL,Outlet,1
 Non-Parent Node Connection,STAIR_3_8F089848 VAV TERMINAL INLET AIR NODE,AIRTERMINAL:SINGLEDUCT:VAV:REHEAT,STAIR_3_8F089848 VAV TERMINAL,Inlet,1
 Non-Parent Node Connection,UPSTAIRS_OFFICES VAV TERMINAL DAMPER OUTLET,AIRTERMINAL:SINGLEDUCT:VAV:REHEAT,UPSTAIRS_OFFICES VAV TERMINAL,Outlet,1
 Non-Parent Node Connection,UPSTAIRS_OFFICES VAV TERMINAL INLET AIR NODE,AIRTERMINAL:SINGLEDUCT:VAV:REHEAT,UPSTAIRS_OFFICES VAV TERMINAL,Inlet,1
 Non-Parent Node Connection,WEST_CORRIDOR VAV TERMINAL DAMPER OUTLET,AIRTERMINAL:SINGLEDUCT:VAV:REHEAT,WEST_CORRIDOR VAV TERMINAL,Outlet,1
 Non-Parent Node Connection,WEST_CORRIDOR VAV TERMINAL INLET AIR NODE,AIRTERMINAL:SINGLEDUCT:VAV:REHEAT,WEST_CORRIDOR VAV TERMINAL,Inlet,1
 Non-Parent Node Connection,WEST_OFFICE_BLOCK VAV TERMINAL DAMPER OUTLET,AIRTERMINAL:SINGLEDUCT:VAV:REHEAT,WEST_OFFICE_BLOCK VAV TERMINAL,Outlet,1
 Non-Parent Node Connection,WEST_OFFICE_BLOCK VAV TERMINAL INLET AIR NODE,AIRTERMINAL:SINGLEDUCT:VAV:REHEAT,WEST_OFFICE_BLOCK VAV TERMINAL,Inlet,1
 Non-Parent Node Connection,54 ZONE VAV CLG COIL OUTLET AIR NODE,CONTROLLER:WATERCOIL,54 ZONE VAV CLG COIL CONTROLLER,Sensor,1
 Non-Parent Node Connection,54 ZONE VAV CLG COIL INLET WATER NODE,CONTROLLER:WATERCOIL,54 ZONE VAV CLG COIL CONTROLLER,Actuator,1
 Non-Parent Node Connection,54 ZONE VAV MAIN HTG COIL OUTLET AIR NODE,CONTROLLER:WATERCOIL,54 ZONE VAV MAIN HTG COIL CONTROLLER,Sensor,1
 Non-Parent Node Connection,54 ZONE VAV MAIN HTG COIL INLET WATER NODE,CONTROLLER:WATERCOIL,54 ZONE VAV MAIN HTG COIL CONTROLLER,Actuator,1
 Non-Parent Node Connection,54 ZONE VAV DEMAND OUTLET NODE,AIRLOOPHVAC:ZONEMIXER,AIR LOOP HVAC ZONE MIXER 1,Outlet,1
 Non-Parent Node Connection,113_CAREER_SERVICES RETURN AIR NODE,AIRLOOPHVAC:ZONEMIXER,AIR LOOP HVAC ZONE MIXER 1,Inlet,1
 Non-Parent Node Connection,NORTH_HALL RETURN AIR NODE,AIRLOOPHVAC:ZONEMIXER,AIR LOOP HVAC ZONE MIXER 1,Inlet,1
 Non-Parent Node Connection,WEST_CORRIDOR RETURN AIR NODE,AIRLOOPHVAC:ZONEMIXER,AIR LOOP HVAC ZONE MIXER 1,Inlet,1
 Non-Parent Node Connection,RESTROOMS RETURN AIR NODE,AIRLOOPHVAC:ZONEMIXER,AIR LOOP HVAC ZONE MIXER 1,Inlet,1
 Non-Parent Node Connection,112_ARC RETURN AIR NODE,AIRLOOPHVAC:ZONEMIXER,AIR LOOP HVAC ZONE MIXER 1,Inlet,1
 Non-Parent Node Connection,114_OFFICES RETURN AIR NODE,AIRLOOPHVAC:ZONEMIXER,AIR LOOP HVAC ZONE MIXER 1,Inlet,1
 Non-Parent Node Connection,EAST_CORRIDOR RETURN AIR NODE,AIRLOOPHVAC:ZONEMIXER,AIR LOOP HVAC ZONE MIXER 1,Inlet,1
 Non-Parent Node Connection,104_STORAGE RETURN AIR NODE,AIRLOOPHVAC:ZONEMIXER,AIR LOOP HVAC ZONE MIXER 1,Inlet,1
 Non-Parent Node Connection,109 RETURN AIR NODE,AIRLOOPHVAC:ZONEMIXER,AIR LOOP HVAC ZONE MIXER 1,Inlet,1
 Non-Parent Node Connection,108 RETURN AIR NODE,AIRLOOPHVAC:ZONEMIXER,AIR LOOP HVAC ZONE MIXER 1,Inlet,1
 Non-Parent Node Connection,SE_HALL_PIANO RETURN AIR NODE,AIRLOOPHVAC:ZONEMIXER,AIR LOOP HVAC ZONE MIXER 1,Inlet,1
 Non-Parent Node Connection,EAST_SMALL_CORRIDOR RETURN AIR NODE,AIRLOOPHVAC:ZONEMIXER,AIR LOOP HVAC ZONE MIXER 1,Inlet,1
 Non-Parent Node Connection,SOUTH_HALL RETURN AIR NODE,AIRLOOPHVAC:ZONEMIXER,AIR LOOP HVAC ZONE MIXER 1,Inlet,1
 Non-Parent Node Connection,SMALL_WEST_CORRIDOR RETURN AIR NODE,AIRLOOPHVAC:ZONEMIXER,AIR LOOP HVAC ZONE MIXER 1,Inlet,1
 Non-Parent Node Connection,WEST_OFFICE_BLOCK RETURN AIR NODE,AIRLOOPHVAC:ZONEMIXER,AIR LOOP HVAC ZONE MIXER 1,Inlet,1
 Non-Parent Node Connection,100_AUDITORIUM RETURN AIR NODE,AIRLOOPHVAC:ZONEMIXER,AIR LOOP HVAC ZONE MIXER 1,Inlet,1
 Non-Parent Node Connection,102_OFFICES RETURN AIR NODE,AIRLOOPHVAC:ZONEMIXER,AIR LOOP HVAC ZONE MIXER 1,Inlet,1
 Non-Parent Node Connection,AUDITORIUM_LOBBY RETURN AIR NODE,AIRLOOPHVAC:ZONEMIXER,AIR LOOP HVAC ZONE MIXER 1,Inlet,1
 Non-Parent Node Connection,UPSTAIRS_OFFICES RETURN AIR NODE,AIRLOOPHVAC:ZONEMIXER,AIR LOOP HVAC ZONE MIXER 1,Inlet,1
 Non-Parent Node Connection,ROOM_13_B04291D5 RETURN AIR NODE,AIRLOOPHVAC:ZONEMIXER,AIR LOOP HVAC ZONE MIXER 1,Inlet,1
 Non-Parent Node Connection,CLASSROOM_1_90B605A9 RETURN AIR NODE,AIRLOOPHVAC:ZONEMIXER,AIR LOOP HVAC ZONE MIXER 1,Inlet,1
 Non-Parent Node Connection,CLASSROOM_2_ECCCF8B8 RETURN AIR NODE,AIRLOOPHVAC:ZONEMIXER,AIR LOOP HVAC ZONE MIXER 1,Inlet,1
 Non-Parent Node Connection,CORRIDOR_1_FA1FE4C1 RETURN AIR NODE,AIRLOOPHVAC:ZONEMIXER,AIR LOOP HVAC ZONE MIXER 1,Inlet,1
 Non-Parent Node Connection,CORRIDOR_2_CFBEC8AA RETURN AIR NODE,AIRLOOPHVAC:ZONEMIXER,AIR LOOP HVAC ZONE MIXER 1,Inlet,1
 Non-Parent Node Connection,CORRIDOR_3_7621FA0C RETURN AIR NODE,AIRLOOPHVAC:ZONEMIXER,AIR LOOP HVAC ZONE MIXER 1,Inlet,1
 Non-Parent Node Connection,CORRIDOR_4_9B747DDD RETURN AIR NODE,AIRLOOPHVAC:ZONEMIXER,AIR LOOP HVAC ZONE MIXER 1,Inlet,1
 Non-Parent Node Connection,MECH_1_40A96879 RETURN AIR NODE,AIRLOOPHVAC:ZONEMIXER,AIR LOOP HVAC ZONE MIXER 1,Inlet,1
 Non-Parent Node Connection,MECH_2_C6ABCC9A RETURN AIR NODE,AIRLOOPHVAC:ZONEMIXER,AIR LOOP HVAC ZONE MIXER 1,Inlet,1
 Non-Parent Node Connection,MECH_3_6E799E0F RETURN AIR NODE,AIRLOOPHVAC:ZONEMIXER,AIR LOOP HVAC ZONE MIXER 1,Inlet,1
 Non-Parent Node Connection,MECH_4_99985F88 RETURN AIR NODE,AIRLOOPHVAC:ZONEMIXER,AIR LOOP HVAC ZONE MIXER 1,Inlet,1
 Non-Parent Node Connection,AUDITORIUMLOWER_0B49D193 RETURN AIR NODE,AIRLOOPHVAC:ZONEMIXER,AIR LOOP HVAC ZONE MIXER 1,Inlet,1
 Non-Parent Node Connection,OFFICE_1_B1424685 RETURN AIR NODE,AIRLOOPHVAC:ZONEMIXER,AIR LOOP HVAC ZONE MIXER 1,Inlet,1
 Non-Parent Node Connection,OFFICE_2_37CC8413 RETURN AIR NODE,AIRLOOPHVAC:ZONEMIXER,AIR LOOP HVAC ZONE MIXER 1,Inlet,1
 Non-Parent Node Connection,OFFICE_3_93B2C9FF RETURN AIR NODE,AIRLOOPHVAC:ZONEMIXER,AIR LOOP HVAC ZONE MIXER 1,Inlet,1
 Non-Parent Node Connection,OFFICE_4_3DD7EBAB RETURN AIR NODE,AIRLOOPHVAC:ZONEMIXER,AIR LOOP HVAC ZONE MIXER 1,Inlet,1
 Non-Parent Node Connection,OFFICE_5_682148B2 RETURN AIR NODE,AIRLOOPHVAC:ZONEMIXER,AIR LOOP HVAC ZONE MIXER 1,Inlet,1
 Non-Parent Node Connection,OFFICE_6_61DD9104 RETURN AIR NODE,AIRLOOPHVAC:ZONEMIXER,AIR LOOP HVAC ZONE MIXER 1,Inlet,1
 Non-Parent Node Connection,RESTROOM_1_404313B9 RETURN AIR NODE,AIRLOOPHVAC:ZONEMIXER,AIR LOOP HVAC ZONE MIXER 1,Inlet,1
 Non-Parent Node Connection,RESTROOM_2_A377B4B3 RETURN AIR NODE,AIRLOOPHVAC:ZONEMIXER,AIR LOOP HVAC ZONE MIXER 1,Inlet,1
 Non-Parent Node Connection,RESTROOM_3_C201E5F7 RETURN AIR NODE,AIRLOOPHVAC:ZONEMIXER,AIR LOOP HVAC ZONE MIXER 1,Inlet,1
 Non-Parent Node Connection,RESTROOM_4_33BABDA2 RETURN AIR NODE,AIRLOOPHVAC:ZONEMIXER,AIR LOOP HVAC ZONE MIXER 1,Inlet,1
 Non-Parent Node Connection,RESTROOM_5_911A78E2 RETURN AIR NODE,AIRLOOPHVAC:ZONEMIXER,AIR LOOP HVAC ZONE MIXER 1,Inlet,1
 Non-Parent Node Connection,RESTROOM_6_A019D741 RETURN AIR NODE,AIRLOOPHVAC:ZONEMIXER,AIR LOOP HVAC ZONE MIXER 1,Inlet,1
 Non-Parent Node Connection,STAIR_1_1681051F RETURN AIR NODE,AIRLOOPHVAC:ZONEMIXER,AIR LOOP HVAC ZONE MIXER 1,Inlet,1
 Non-Parent Node Connection,STAIR_2_976E6FD5 RETURN AIR NODE,AIRLOOPHVAC:ZONEMIXER,AIR LOOP HVAC ZONE MIXER 1,Inlet,1
 Non-Parent Node Connection,STAIR_3_8F089848 RETURN AIR NODE,AIRLOOPHVAC:ZONEMIXER,AIR LOOP HVAC ZONE MIXER 1,Inlet,1
 Non-Parent Node Connection,KITCHEN_1_55B9A759 RETURN AIR NODE,AIRLOOPHVAC:ZONEMIXER,AIR LOOP HVAC ZONE MIXER 1,Inlet,1
 Non-Parent Node Connection,KITCHEN_2_B940211D RETURN AIR NODE,AIRLOOPHVAC:ZONEMIXER,AIR LOOP HVAC ZONE MIXER 1,Inlet,1
 Non-Parent Node Connection,KITCHEN_3_3E9A0FB8 RETURN AIR NODE,AIRLOOPHVAC:ZONEMIXER,AIR LOOP HVAC ZONE MIXER 1,Inlet,1
 Non-Parent Node Connection,BOGDINING_E25F401A RETURN AIR NODE,AIRLOOPHVAC:ZONEMIXER,AIR LOOP HVAC ZONE MIXER 1,Inlet,1
 Non-Parent Node Connection,BOGPLAY_1_D1F076F9 RETURN AIR NODE,AIRLOOPHVAC:ZONEMIXER,AIR LOOP HVAC ZONE MIXER 1,Inlet,1
 Non-Parent Node Connection,BOGPLAY_2_D145E14C RETURN AIR NODE,AIRLOOPHVAC:ZONEMIXER,AIR LOOP HVAC ZONE MIXER 1,Inlet,1
 Non-Parent Node Connection,BOGPLAY_1_B863644B RETURN AIR NODE,AIRLOOPHVAC:ZONEMIXER,AIR LOOP HVAC ZONE MIXER 1,Inlet,1
 Non-Parent Node Connection,BOGPLAY_2_4B3AE9FE RETURN AIR NODE,AIRLOOPHVAC:ZONEMIXER,AIR LOOP HVAC ZONE MIXER 1,Inlet,1
 Non-Parent Node Connection,54 ZONE VAV MIXED AIR NODE,OUTDOORAIR:MIXER,54 ZONE VAV OA SYSTEM OUTDOOR AIR MIXER,Outlet,1
 Non-Parent Node Connection,54 ZONE VAV OUTDOOR AIR NODE,OUTDOORAIR:MIXER,54 ZONE VAV OA SYSTEM OUTDOOR AIR MIXER,Inlet,1
 Non-Parent Node Connection,54 ZONE VAV RELIEF AIR NODE,OUTDOORAIR:MIXER,54 ZONE VAV OA SYSTEM OUTDOOR AIR MIXER,ReliefAir,1
 Non-Parent Node Connection,54 ZONE VAV SUPPLY INLET NODE,OUTDOORAIR:MIXER,54 ZONE VAV OA SYSTEM OUTDOOR AIR MIXER,Inlet,1
 Non-Parent Node Connection,54 ZONE VAV MAIN HTG COIL OUTLET AIR NODE,FAN:VARIABLEVOLUME,54 ZONE VAV FAN,Inlet,1
 Non-Parent Node Connection,54 ZONE VAV SUPPLY OUTLET NODE,FAN:VARIABLEVOLUME,54 ZONE VAV FAN,Outlet,1
 Non-Parent Node Connection,54 ZONE VAV MIXED AIR NODE,CONTROLLER:OUTDOORAIR,54 ZONE VAV OA CONTROLLER,Sensor,1
 Non-Parent Node Connection,54 ZONE VAV OUTDOOR AIR NODE,CONTROLLER:OUTDOORAIR,54 ZONE VAV OA CONTROLLER,Actuator,1
 Non-Parent Node Connection,54 ZONE VAV RELIEF AIR NODE,CONTROLLER:OUTDOORAIR,54 ZONE VAV OA CONTROLLER,Actuator,1
 Non-Parent Node Connection,54 ZONE VAV SUPPLY INLET NODE,CONTROLLER:OUTDOORAIR,54 ZONE VAV OA CONTROLLER,Sensor,1
 Non-Parent Node Connection,CHILLED WATER LOOP SUPPLY INLET NODE,PUMP:VARIABLESPEED,CHILLED WATER LOOP PUMP,Inlet,1
 Non-Parent Node Connection,CHILLED WATER LOOP PUMP OUTLET WATER NODE,PUMP:VARIABLESPEED,CHILLED WATER LOOP PUMP,Outlet,1
 Non-Parent Node Connection,HOT WATER LOOP SUPPLY INLET NODE,PUMP:VARIABLESPEED,HOT WATER LOOP PUMP,Inlet,1
 Non-Parent Node Connection,HOT WATER LOOP PUMP OUTLET WATER NODE,PUMP:VARIABLESPEED,HOT WATER LOOP PUMP,Outlet,1
 Non-Parent Node Connection,NODE 1,PUMP:CONSTANTSPEED,SHW PUMP1,Inlet,1
 Non-Parent Node Connection,NODE 7,PUMP:CONSTANTSPEED,SHW PUMP1,Outlet,1
