Program Version,EnergyPlus, Version 22.1.0-ed759b17ee, YMD=2022.12.12 23:10
! <Version>, Version ID
 Version, 22.1
! <Timesteps per Hour>, #TimeSteps, Minutes per TimeStep {minutes}
 Timesteps per Hour,  6, 10
! <System Convergence Limits>, Minimum System TimeStep {minutes}, Max HVAC Iterations, Minimum Plant Iterations, Maximum Plant Iterations
 System Convergence Limits, 1, 20, 2, 8
! <Simulation Control>, Do Zone Sizing, Do System Sizing, Do Plant Sizing, Do Design Days, Do Weather Simulation, Do HVAC Sizing Simulation
 Simulation Control, Yes, Yes, Yes, No, Yes, No
! <Performance Precision Tradeoffs>, Use Coil Direct Simulation, Zone Radiant Exchange Algorithm, Override Mode, Number of Timestep In Hour, Force Euler Method, Minimum Number of Warmup Days, Force Suppress All Begin Environment Resets, Minimum System Timestep, MaxZoneTempDiff, MaxAllowedDelTemp
 Performance Precision Tradeoffs, No, ScriptF, Normal, 6, No, 1, No, 1.0, 0.300, 2.0000E-003
! <Output Reporting Tolerances>, Tolerance for Time Heating Setpoint Not Met, Tolerance for Zone Cooling Setpoint Not Met Time
 Output Reporting Tolerances, 0.200, 0.200, 
! <Site:GroundTemperature:BuildingSurface>,Jan{C},Feb{C},Mar{C},Apr{C},May{C},Jun{C},Jul{C},Aug{C},Sep{C},Oct{C},Nov{C},Dec{C}
 Site:GroundTemperature:BuildingSurface,  18.00,  18.00,  18.00,  18.00,  18.00,  18.00,  18.00,  18.00,  18.00,  18.00,  18.00,  18.00
! <Site:GroundTemperature:FCfactorMethod>,Jan{C},Feb{C},Mar{C},Apr{C},May{C},Jun{C},Jul{C},Aug{C},Sep{C},Oct{C},Nov{C},Dec{C}
 Site:GroundTemperature:FCfactorMethod,   3.42,  -1.36,  -2.66,  -1.53,   4.92,  12.14,  18.93,  23.85,  25.28,  22.97,  17.41,  10.39
! <Site:GroundTemperature:Shallow>,Jan{C},Feb{C},Mar{C},Apr{C},May{C},Jun{C},Jul{C},Aug{C},Sep{C},Oct{C},Nov{C},Dec{C}
 Site:GroundTemperature:Shallow,  13.00,  13.00,  13.00,  13.00,  13.00,  13.00,  13.00,  13.00,  13.00,  13.00,  13.00,  13.00
! <Site:GroundTemperature:Deep>,Jan{C},Feb{C},Mar{C},Apr{C},May{C},Jun{C},Jul{C},Aug{C},Sep{C},Oct{C},Nov{C},Dec{C}
 Site:GroundTemperature:Deep,  16.00,  16.00,  16.00,  16.00,  16.00,  16.00,  16.00,  16.00,  16.00,  16.00,  16.00,  16.00
! <Site:GroundReflectance>,Jan{dimensionless},Feb{dimensionless},Mar{dimensionless},Apr{dimensionless},May{dimensionless},Jun{dimensionless},Jul{dimensionless},Aug{dimensionless},Sep{dimensionless},Oct{dimensionless},Nov{dimensionless},Dec{dimensionless}
 Site:GroundReflectance,  0.20,  0.20,  0.20,  0.20,  0.20,  0.20,  0.20,  0.20,  0.20,  0.20,  0.20,  0.20
! <Site:GroundReflectance:SnowModifier>, Normal, Daylighting {dimensionless}
 Site:GroundReflectance:SnowModifier,   1.000,   1.000
! <Site:GroundReflectance:Snow>,Jan{dimensionless},Feb{dimensionless},Mar{dimensionless},Apr{dimensionless},May{dimensionless},Jun{dimensionless},Jul{dimensionless},Aug{dimensionless},Sep{dimensionless},Oct{dimensionless},Nov{dimensionless},Dec{dimensionless}
 Site:GroundReflectance:Snow,  0.20,  0.20,  0.20,  0.20,  0.20,  0.20,  0.20,  0.20,  0.20,  0.20,  0.20,  0.20
! <Site:GroundReflectance:Snow:Daylighting>,Jan{dimensionless},Feb{dimensionless},Mar{dimensionless},Apr{dimensionless},May{dimensionless},Jun{dimensionless},Jul{dimensionless},Aug{dimensionless},Sep{dimensionless},Oct{dimensionless},Nov{dimensionless},Dec{dimensionless}
 Site:GroundReflectance:Snow:Daylighting,  0.20,  0.20,  0.20,  0.20,  0.20,  0.20,  0.20,  0.20,  0.20,  0.20,  0.20,  0.20
! <Environment:Weather Station>,Wind Sensor Height Above Ground {m},Wind Speed Profile Exponent {},Wind Speed Profile Boundary Layer Thickness {m},Air Temperature Sensor Height Above Ground {m},Wind Speed Modifier Coefficient-Internal,Temperature Modifier Coefficient-Internal
Environment:Weather Station,10.000,0.140,270.000,1.500,1.586,9.750E-003
! <Site:Location>, Location Name, Latitude {N+/S- Deg}, Longitude {E+/W- Deg},  Time Zone Number {GMT+/-}, Elevation {m},  Standard Pressure at Elevation {Pa}, Standard RhoAir at Elevation
Site:Location,Chicago Midway Intl AP IL USA TMY3 WMO#=725340,41.78,-87.75,-6.00,186.00,99110,1.1780
! <Site Water Mains Temperature Information>,Calculation Method{},Water Mains Temperature Schedule Name{},Annual Average Outdoor Air Temperature{C},Maximum Difference In Monthly Average Outdoor Air Temperatures{deltaC},Fixed Default Water Mains Temperature{C}
Site Water Mains Temperature Information,CorrelationFromWeatherFile,NA,11.39,30.88,NA
! <Building Information>, Building Name,North Axis {deg},Terrain,  Loads Convergence Tolerance Value,Temperature Convergence Tolerance Value,  Solar Distribution,Maximum Number of Warmup Days,Minimum Number of Warmup Days
 Building Information,Building 1,0.000,City,4.00000E-002,0.40000,FullExteriorWithReflectionsFromExteriorSurfaces,25,1
! <Inside Convection Algorithm>, Algorithm {Simple | TARP | CeilingDiffuser | AdaptiveConvectionAlgorithm}
Inside Convection Algorithm,TARP
! <Outside Convection Algorithm>, Algorithm {SimpleCombined | TARP | MoWitt | DOE-2 | AdaptiveConvectionAlgorithm}
Outside Convection Algorithm,DOE-2
! <Sky Radiance Distribution>, Value {Anisotropic}
Sky Radiance Distribution,Anisotropic
! <Zone Air Solution Algorithm>, Value {ThirdOrderBackwardDifference | AnalyticalSolution | EulerMethod}
 Zone Air Solution Algorithm, ThirdOrderBackwardDifference
! <Zone Air Carbon Dioxide Balance Simulation>, Simulation {Yes/No}, Carbon Dioxide Concentration
 Zone Air Carbon Dioxide Balance Simulation, No,N/A
! <Zone Air Generic Contaminant Balance Simulation>, Simulation {Yes/No}, Generic Contaminant Concentration
 Zone Air Generic Contaminant Balance Simulation, No,N/A
! <Zone Air Mass Flow Balance Simulation>, Enforce Mass Balance, Adjust Zone Mixing and Return {AdjustMixingOnly | AdjustReturnOnly | AdjustMixingThenReturn | AdjustReturnThenMixing | None}, Adjust Zone Infiltration {AddInfiltration | AdjustInfiltration | None}, Infiltration Zones {MixingSourceZonesOnly | AllZones}
 Zone Air Mass Flow Balance Simulation, No,N/A,N/A,N/A
! <HVACSystemRootFindingAlgorithm>, Value {RegulaFalsi | Bisection | BisectionThenRegulaFalsi | RegulaFalsiThenBisection}
 HVACSystemRootFindingAlgorithm, RegulaFalsi
! <Environment:Site Atmospheric Variation>,Wind Speed Profile Exponent {},Wind Speed Profile Boundary Layer Thickness {m},Air Temperature Gradient Coefficient {K/m}
Environment:Site Atmospheric Variation,0.330,460.000,6.500000E-003
! <Surface Geometry>,Starting Corner,Vertex Input Direction,Coordinate System,Daylight Reference Point Coordinate System,Rectangular (Simple) Surface Coordinate System
 Surface Geometry,UpperLeftCorner,Counterclockwise,RelativeCoordinateSystem,RelativeCoordinateSystem,RelativeToZoneOrigin
! <ShadingProperty Reflectance>,Shading Surface Name,Shading Type,Diffuse Solar Reflectance, Diffuse Visible Reflectance,Surface Glazing Fraction,Surface Glazing Contruction
! <Surface Heat Transfer Algorithm>, Value {CTF - ConductionTransferFunction | EMPD - MoisturePenetrationDepthConductionTransferFunction | CondFD - ConductionFiniteDifference | HAMT - CombinedHeatAndMoistureFiniteElement} - Description,Inside Surface Max Temperature Limit{C}, Surface Convection Coefficient Lower Limit {W/m2-K}, Surface Convection Coefficient Upper Limit {W/m2-K}
Surface Heat Transfer Algorithm, CTF - ConductionTransferFunction,200,0.10,1000.0
! <Shading Summary>, Number of Fixed Detached Shades, Number of Building Detached Shades, Number of Attached Shades
 Shading Summary,0,0,0
! <Zone Summary>, Number of Zones, Number of Zone Surfaces, Number of SubSurfaces
 Zone Summary,54,584,29
! <Zone Information>,Zone Name,North Axis {deg},Origin X-Coordinate {m},Origin Y-Coordinate {m},Origin Z-Coordinate {m},Centroid X-Coordinate {m},Centroid Y-Coordinate {m},Centroid Z-Coordinate {m},Type,Zone Multiplier,Zone List Multiplier,Minimum X {m},Maximum X {m},Minimum Y {m},Maximum Y {m},Minimum Z {m},Maximum Z {m},Ceiling Height {m},Volume {m3},Zone Inside Convection Algorithm {Simple-Detailed-CeilingDiffuser-TrombeWall},Zone Outside Convection Algorithm {Simple-Detailed-Tarp-MoWitt-DOE-2-BLAST}, Floor Area {m2},Exterior Gross Wall Area {m2},Exterior Net Wall Area {m2},Exterior Window Area {m2}, Number of Surfaces, Number of SubSurfaces, Number of Shading SubSurfaces,  Part of Total Building Area
 Zone Information, 100_AUDITORIUM,0.0,0.00,0.00,0.00,0.61,25.15,3.66,1,1,1,-10.06,11.28,11.89,38.40,0.00,7.32,7.32,4138.79,TARP,DOE-2,565.78,0.00,0.00,0.00,15,0,0,Yes
 Zone Information, 102_OFFICES,0.0,0.00,0.00,0.00,1.09,-0.81,3.66,1,1,1,-8.84,11.28,-6.10,3.35,0.00,7.32,7.32,1253.87,TARP,DOE-2,171.41,0.00,0.00,0.00,12,0,0,Yes
 Zone Information, 104_STORAGE,0.0,0.00,0.00,0.00,17.53,-3.05,3.66,1,1,1,14.94,20.12,-5.79,-0.30,0.00,7.32,7.32,207.96,TARP,DOE-2,28.43,40.13,6.02,34.11,6,2,0,Yes
 Zone Information, 108,0.0,0.00,0.00,0.00,-14.63,-12.19,3.66,1,1,1,-17.98,-11.28,-18.29,-6.10,0.00,7.32,7.32,598.05,TARP,DOE-2,81.75,138.24,20.74,117.50,6,4,0,Yes
 Zone Information, 109,0.0,0.00,0.00,0.00,-14.63,-3.05,3.66,1,1,1,-17.98,-11.28,-6.10,1.10E-015,0.00,7.32,7.32,299.03,TARP,DOE-2,40.88,44.59,6.69,37.90,6,2,0,Yes
 Zone Information, 112_ARC,0.0,0.00,0.00,0.00,-14.63,58.83,3.66,1,1,1,-17.98,-11.28,52.43,65.23,0.00,7.32,7.32,627.95,TARP,DOE-2,85.84,142.70,21.40,121.29,6,4,0,Yes
 Zone Information, 113_CAREER_SERVICES,0.0,0.00,0.00,0.00,15.70,60.20,3.66,1,1,1,11.28,20.12,55.17,65.23,0.00,7.32,7.32,650.38,TARP,DOE-2,88.91,138.24,20.74,117.50,7,4,0,Yes
 Zone Information, 114_OFFICES,0.0,0.00,0.00,0.00,-1.98,44.04,1.83,1,1,1,-10.06,6.10,38.40,49.68,0.00,3.66,3.66,666.35,TARP,DOE-2,182.18,0.00,0.00,0.00,9,0,0,Yes
 Zone Information, AUDITORIUMLOWER_0B49D193,0.0,0.00,0.00,0.00,1.26,30.93,-1.83,1,1,1,-10.02,12.54,23.39,38.47,-3.66,0.00,3.66,1245.11,TARP,DOE-2,340.20,0.00,0.00,0.00,18,0,0,Yes
 Zone Information, AUDITORIUM_LOBBY,0.0,0.00,0.00,0.00,0.33,6.00,3.66,1,1,1,-10.06,11.28,1.83,11.89,0.00,7.32,7.32,1482.22,TARP,DOE-2,202.62,0.00,0.00,0.00,14,0,0,Yes
 Zone Information, BOGDINING_E25F401A,0.0,0.00,0.00,0.00,10.15,44.00,-1.83,1,1,1,2.41,17.27,38.47,49.99,-3.66,0.00,3.66,496.12,TARP,DOE-2,135.55,0.00,0.00,0.00,16,0,0,Yes
 Zone Information, BOGPLAY_1_B863644B,0.0,0.00,0.00,0.00,12.21,-2.16,-1.83,1,1,1,10.93,13.48,-4.86,0.54,-3.66,0.00,3.66,50.34,TARP,DOE-2,13.75,0.00,0.00,0.00,7,0,0,Yes
 Zone Information, BOGPLAY_1_D1F076F9,0.0,0.00,0.00,0.00,-2.46,14.57,-1.83,1,1,1,-10.02,5.10,8.29,20.84,-3.66,0.00,3.66,694.75,TARP,DOE-2,189.82,0.00,0.00,0.00,6,0,0,Yes
 Zone Information, BOGPLAY_2_4B3AE9FE,0.0,0.00,0.00,0.00,7.85,1.47,-1.83,1,1,1,4.98,10.93,-3.08,5.56,-3.66,0.00,3.66,121.29,TARP,DOE-2,33.14,0.00,0.00,0.00,14,0,0,Yes
 Zone Information, BOGPLAY_2_D145E14C,0.0,0.00,0.00,0.00,13.87,21.28,-1.83,1,1,1,5.10,20.12,5.56,40.46,-3.66,0.00,3.66,1155.70,TARP,DOE-2,315.77,0.00,0.00,0.00,15,0,0,Yes
 Zone Information, CLASSROOM_1_90B605A9,0.0,0.00,0.00,0.00,-5.57,1.24,-1.83,1,1,1,-8.39,-2.76,-3.08,5.56,-3.66,0.00,3.66,178.14,TARP,DOE-2,48.67,0.00,0.00,0.00,9,0,0,Yes
 Zone Information, CLASSROOM_2_ECCCF8B8,0.0,0.00,0.00,0.00,16.85,-9.12,-1.83,1,1,1,14.31,20.12,-18.29,-0.59,-3.66,0.00,3.66,360.47,TARP,DOE-2,98.49,0.00,0.00,0.00,9,0,0,Yes
 Zone Information, CORRIDOR_1_FA1FE4C1,0.0,0.00,0.00,0.00,1.55,22.02,-1.83,1,1,1,-10.02,12.54,20.84,23.39,-3.66,0.00,3.66,210.45,TARP,DOE-2,57.50,55.34,55.34,0.00,8,0,0,Yes
 Zone Information, CORRIDOR_2_CFBEC8AA,0.0,0.00,0.00,0.00,-7.70,11.06,-1.83,1,1,1,-17.98,11.91,-6.78,38.76,-3.66,0.00,3.66,734.10,TARP,DOE-2,200.57,0.00,0.00,0.00,25,0,0,Yes
 Zone Information, CORRIDOR_3_7621FA0C,0.0,0.00,0.00,0.00,6.80,-5.44,-1.83,1,1,1,-4.52,14.93,-18.29,4.58,-3.66,0.00,3.66,436.76,TARP,DOE-2,119.33,0.00,0.00,0.00,21,0,0,Yes
 Zone Information, CORRIDOR_4_9B747DDD,0.0,0.00,0.00,0.00,-6.21,48.79,-1.83,1,1,1,-17.98,4.96,38.47,63.18,-3.66,0.00,3.66,475.73,TARP,DOE-2,129.98,0.00,0.00,0.00,25,0,0,Yes
 Zone Information, EAST_CORRIDOR,0.0,0.00,0.00,0.00,15.70,27.43,3.66,1,1,1,11.28,20.12,-0.30,55.17,0.00,7.32,7.32,3586.95,TARP,DOE-2,490.34,405.80,60.87,344.93,13,2,0,Yes
 Zone Information, EAST_SMALL_CORRIDOR,0.0,0.00,0.00,0.00,13.11,-3.20,3.66,1,1,1,11.28,14.94,-6.10,-0.30,0.00,7.32,7.32,154.95,TARP,DOE-2,21.18,0.00,0.00,0.00,9,0,0,Yes
 Zone Information, KITCHEN_1_55B9A759,0.0,0.00,0.00,0.00,-11.19,60.22,-1.83,1,1,1,-17.98,-4.40,55.21,65.23,-3.66,0.00,3.66,498.25,TARP,DOE-2,136.13,0.00,0.00,0.00,7,0,0,Yes
 Zone Information, KITCHEN_2_B940211D,0.0,0.00,0.00,0.00,-10.41,45.27,-1.83,1,1,1,-16.01,-4.40,38.47,52.95,-3.66,0.00,3.66,491.64,TARP,DOE-2,134.33,0.00,0.00,0.00,13,0,0,Yes
 Zone Information, KITCHEN_3_3E9A0FB8,0.0,0.00,0.00,0.00,18.20,45.23,-1.83,1,1,1,16.29,20.12,40.46,49.99,-3.66,0.00,3.66,133.68,TARP,DOE-2,36.53,0.00,0.00,0.00,7,0,0,Yes
 Zone Information, MECH_1_40A96879,0.0,0.00,0.00,0.00,8.69,57.61,-1.83,1,1,1,-2.74,20.12,49.99,65.23,-3.66,0.00,3.66,1274.40,TARP,DOE-2,348.20,0.00,0.00,0.00,9,0,0,Yes
 Zone Information, MECH_2_C6ABCC9A,0.0,0.00,0.00,0.00,-14.09,-6.36,-1.83,1,1,1,-17.98,-10.20,-18.29,5.56,-3.66,0.00,3.66,679.24,TARP,DOE-2,185.59,0.00,0.00,0.00,8,0,0,Yes
 Zone Information, MECH_3_6E799E0F,0.0,0.00,0.00,0.00,-3.90,40.80,-1.83,1,1,1,-4.93,-2.88,38.47,43.13,-3.66,0.00,3.66,35.00,TARP,DOE-2,9.56,0.00,0.00,0.00,6,0,0,Yes
 Zone Information, MECH_4_99985F88,0.0,0.00,0.00,0.00,-7.54,-3.97,-1.83,1,1,1,-8.39,-6.69,-4.86,-3.08,-3.66,0.00,3.66,11.04,TARP,DOE-2,3.02,0.00,0.00,0.00,6,0,0,Yes
 Zone Information, NORTH_HALL,0.0,0.00,0.00,0.00,-1.81E-016,57.45,3.66,1,1,1,-11.28,11.28,49.68,65.23,0.00,7.32,7.32,2564.83,TARP,DOE-2,350.62,165.00,24.75,140.25,16,2,0,Yes
 Zone Information, OFFICE_1_B1424685,0.0,0.00,0.00,0.00,8.47,39.96,-1.83,1,1,1,7.19,9.76,38.47,41.44,-3.66,0.00,3.66,27.88,TARP,DOE-2,7.62,0.00,0.00,0.00,6,0,0,Yes
 Zone Information, OFFICE_2_37CC8413,0.0,0.00,0.00,0.00,4.80,39.96,-1.83,1,1,1,2.41,7.19,38.47,41.44,-3.66,0.00,3.66,51.90,TARP,DOE-2,14.18,0.00,0.00,0.00,6,0,0,Yes
 Zone Information, OFFICE_3_93B2C9FF,0.0,0.00,0.00,0.00,-6.23,40.80,-1.83,1,1,1,-7.53,-4.93,38.47,43.13,-3.66,0.00,3.66,44.34,TARP,DOE-2,12.11,0.00,0.00,0.00,6,0,0,Yes
 Zone Information, OFFICE_4_3DD7EBAB,0.0,0.00,0.00,0.00,-9.13,20.21,-1.83,1,1,1,-15.06,5.10,8.29,31.33,-3.66,0.00,3.66,424.90,TARP,DOE-2,116.09,55.34,55.34,0.00,11,0,0,Yes
 Zone Information, OFFICE_5_682148B2,0.0,0.00,0.00,0.00,-5.96,46.95,-1.83,1,1,1,-7.52,-4.40,44.74,49.16,-3.66,0.00,3.66,50.50,TARP,DOE-2,13.80,0.00,0.00,0.00,6,0,0,Yes
 Zone Information, OFFICE_6_61DD9104,0.0,0.00,0.00,0.00,-0.20,45.44,-1.83,1,1,1,-2.82,2.41,44.44,46.45,-3.66,0.00,3.66,38.58,TARP,DOE-2,10.54,0.00,0.00,0.00,7,0,0,Yes
 Zone Information, RESTROOMS,0.0,0.00,0.00,0.00,8.69,44.04,1.83,1,1,1,6.10,11.28,38.40,49.68,0.00,3.66,3.66,213.74,TARP,DOE-2,58.44,0.00,0.00,0.00,8,0,0,Yes
 Zone Information, RESTROOM_1_404313B9,0.0,0.00,0.00,0.00,14.91,37.60,-1.83,1,1,1,12.54,17.27,36.72,38.47,-3.66,0.00,3.66,30.39,TARP,DOE-2,8.30,0.00,0.00,0.00,6,0,0,Yes
 Zone Information, RESTROOM_2_A377B4B3,0.0,0.00,0.00,0.00,1.53,41.46,-1.83,1,1,1,0.64,2.41,38.47,44.44,-3.66,0.00,3.66,38.76,TARP,DOE-2,10.59,0.00,0.00,0.00,7,0,0,Yes
 Zone Information, RESTROOM_3_C201E5F7,0.0,0.00,0.00,0.00,-1.77,40.80,-1.83,1,1,1,-2.88,-0.66,38.47,43.13,-3.66,0.00,3.66,37.69,TARP,DOE-2,10.30,0.00,0.00,0.00,6,0,0,Yes
 Zone Information, RESTROOM_4_33BABDA2,0.0,0.00,0.00,0.00,-12.54,37.59,-1.83,1,1,1,-15.06,-10.02,36.71,38.47,-3.66,0.00,3.66,32.46,TARP,DOE-2,8.87,0.00,0.00,0.00,6,0,0,Yes
 Zone Information, RESTROOM_5_911A78E2,0.0,0.00,0.00,0.00,8.11,1.60,-1.83,1,1,1,6.73,9.48,-0.36,3.55,-3.66,0.00,3.66,39.31,TARP,DOE-2,10.74,0.00,0.00,0.00,7,0,0,Yes
 Zone Information, RESTROOM_6_A019D741,0.0,0.00,0.00,0.00,15.11,0.77,-1.83,1,1,1,10.93,20.12,-4.86,5.56,-3.66,0.00,3.66,218.99,TARP,DOE-2,59.83,0.00,0.00,0.00,11,0,0,Yes
 Zone Information, ROOM_13_B04291D5,0.0,0.00,0.00,0.00,-0.92,-8.25,-1.83,1,1,1,-10.20,12.42,-16.35,-3.08,-3.66,0.00,3.66,913.91,TARP,DOE-2,249.70,82.79,10.76,72.03,14,1,0,Yes
 Zone Information, SE_HALL_PIANO,0.0,0.00,0.00,0.00,16.41,-11.30,3.66,1,1,1,13.11,20.12,-18.29,-5.79,0.00,7.32,7.32,636.79,TARP,DOE-2,87.05,142.70,21.40,121.29,8,4,0,Yes
 Zone Information, SMALL_WEST_CORRIDOR,0.0,0.00,0.00,0.00,-10.06,-2.13,3.66,1,1,1,-11.28,-8.84,-6.10,1.83,0.00,7.32,7.32,141.36,TARP,DOE-2,19.32,0.00,0.00,0.00,8,0,0,Yes
 Zone Information, SOUTH_HALL,0.0,0.00,0.00,0.00,0.91,-12.19,3.66,1,1,1,-11.28,13.11,-18.29,-6.10,0.00,7.32,7.32,2174.73,TARP,DOE-2,297.29,178.37,26.76,151.62,8,2,0,Yes
 Zone Information, STAIR_1_1681051F,0.0,0.00,0.00,0.00,14.91,33.97,-1.83,1,1,1,12.54,17.27,31.21,36.72,-3.66,0.00,3.66,95.56,TARP,DOE-2,26.11,0.00,0.00,0.00,6,0,0,Yes
 Zone Information, STAIR_2_976E6FD5,0.0,0.00,0.00,0.00,-12.54,34.02,-1.83,1,1,1,-15.06,-10.02,31.33,36.71,-3.66,0.00,3.66,99.28,TARP,DOE-2,27.13,0.00,0.00,0.00,6,0,0,Yes
 Zone Information, STAIR_3_8F089848,0.0,0.00,0.00,0.00,9.54,-2.61,-1.83,1,1,1,8.15,10.93,-4.86,-0.36,-3.66,0.00,3.66,45.91,TARP,DOE-2,12.54,0.00,0.00,0.00,8,0,0,Yes
 Zone Information, UPSTAIRS_OFFICES,0.0,0.00,0.00,0.00,0.61,44.04,5.49,1,1,1,-10.06,11.28,38.40,49.68,3.66,7.32,3.66,880.09,TARP,DOE-2,240.62,0.00,0.00,0.00,12,0,0,Yes
 Zone Information, WEST_CORRIDOR,0.0,0.00,0.00,0.00,-14.72,27.39,3.66,1,1,1,-17.98,-10.06,6.91E-016,52.43,0.00,7.32,7.32,1615.42,TARP,DOE-2,220.83,383.50,57.53,325.98,23,2,0,Yes
 Zone Information, WEST_OFFICE_BLOCK,0.0,0.00,0.00,0.00,-13.13,29.97,3.66,1,1,1,-15.85,-10.06,10.97,47.85,0.00,7.32,7.32,1382.99,TARP,DOE-2,189.06,0.00,0.00,0.00,21,0,0,Yes
! <Zone Internal Gains Nominal>,Zone Name, Floor Area {m2},# Occupants,Area per Occupant {m2/person},Occupant per Area {person/m2},Interior Lighting {W/m2},Electric Load {W/m2},Gas Load {W/m2},Other Load {W/m2},Hot Water Eq {W/m2},Steam Equipment {W/m2},Sum Loads per Area {W/m2},Outdoor Controlled Baseboard Heat
 Zone Internal Gains Nominal, 100_AUDITORIUM,565.78,935.5,0.605,1.653,20.908,4.951,0.000,0.000,0.000,0.000,25.859,No
 Zone Internal Gains Nominal, 102_OFFICES,171.41,14.2,12.089,8.272E-002,9.334,10.764,0.000,0.000,0.000,0.000,20.098,No
 Zone Internal Gains Nominal, 104_STORAGE,28.43,0.5,60.443,1.654E-002,14.001,3.983,0.000,0.000,0.000,0.000,17.984,No
 Zone Internal Gains Nominal, 108,81.75,0.0,N/A,0.000,9.334,3.983,0.000,0.000,0.000,0.000,13.317,No
 Zone Internal Gains Nominal, 109,40.88,0.7,60.443,1.654E-002,14.001,3.983,0.000,0.000,0.000,0.000,17.984,No
 Zone Internal Gains Nominal, 112_ARC,85.84,35.5,2.421,0.413,11.201,10.010,0.000,0.000,0.000,0.000,21.211,No
 Zone Internal Gains Nominal, 113_CAREER_SERVICES,88.91,7.4,12.089,8.272E-002,9.334,10.764,0.000,0.000,0.000,0.000,20.098,No
 Zone Internal Gains Nominal, 114_OFFICES,182.18,15.1,12.089,8.272E-002,9.334,10.764,0.000,0.000,0.000,0.000,20.098,No
 Zone Internal Gains Nominal, AUDITORIUMLOWER_0B49D193,340.20,562.5,0.605,1.653,20.908,4.951,0.000,0.000,0.000,0.000,25.859,No
 Zone Internal Gains Nominal, AUDITORIUM_LOBBY,202.62,0.0,N/A,0.000,9.334,3.983,0.000,0.000,0.000,0.000,13.317,No
 Zone Internal Gains Nominal, BOGDINING_E25F401A,135.55,168.8,0.803,1.245,69.071,129.167,0.000,0.000,0.000,0.000,198.238,No
 Zone Internal Gains Nominal, BOGPLAY_1_B863644B,13.75,0.0,N/A,0.000,9.334,0.000,0.000,0.000,0.000,0.000,9.334,No
 Zone Internal Gains Nominal, BOGPLAY_1_D1F076F9,189.82,226.3,0.839,1.192,47.790,5.382,0.000,0.000,0.000,0.000,53.172,No
 Zone Internal Gains Nominal, BOGPLAY_2_4B3AE9FE,33.14,0.0,N/A,0.000,9.334,0.000,0.000,0.000,0.000,0.000,9.334,No
 Zone Internal Gains Nominal, BOGPLAY_2_D145E14C,315.77,376.4,0.839,1.192,47.790,5.382,0.000,0.000,0.000,0.000,53.172,No
 Zone Internal Gains Nominal, CLASSROOM_1_90B605A9,48.67,20.1,2.421,0.413,11.201,10.010,0.000,0.000,0.000,0.000,21.211,No
 Zone Internal Gains Nominal, CLASSROOM_2_ECCCF8B8,98.49,40.7,2.421,0.413,11.201,10.010,0.000,0.000,0.000,0.000,21.211,No
 Zone Internal Gains Nominal, CORRIDOR_1_FA1FE4C1,57.50,9.5,6.038,0.166,9.334,3.983,0.000,0.000,0.000,0.000,13.317,No
 Zone Internal Gains Nominal, CORRIDOR_2_CFBEC8AA,200.57,33.2,6.038,0.166,9.334,3.983,0.000,0.000,0.000,0.000,13.317,No
 Zone Internal Gains Nominal, CORRIDOR_3_7621FA0C,119.33,19.8,6.038,0.166,9.334,3.983,0.000,0.000,0.000,0.000,13.317,No
 Zone Internal Gains Nominal, CORRIDOR_4_9B747DDD,129.98,21.5,6.038,0.166,9.334,3.983,0.000,0.000,0.000,0.000,13.317,No
 Zone Internal Gains Nominal, EAST_CORRIDOR,490.34,81.2,6.038,0.166,9.334,3.983,0.000,0.000,0.000,0.000,13.317,No
 Zone Internal Gains Nominal, EAST_SMALL_CORRIDOR,21.18,3.5,6.038,0.166,9.334,3.983,0.000,0.000,0.000,0.000,13.317,No
 Zone Internal Gains Nominal, KITCHEN_1_55B9A759,136.13,12.1,11.242,8.895E-002,41.816,301.389,1292.120,0.000,0.000,0.000,1635.325,No
 Zone Internal Gains Nominal, KITCHEN_2_B940211D,134.33,11.9,11.242,8.895E-002,41.816,301.389,1292.120,0.000,0.000,0.000,1635.325,No
 Zone Internal Gains Nominal, KITCHEN_3_3E9A0FB8,36.53,3.2,11.242,8.895E-002,41.816,301.389,1292.120,0.000,0.000,0.000,1635.325,No
 Zone Internal Gains Nominal, MECH_1_40A96879,348.20,5.8,60.443,1.654E-002,9.334,3.983,0.000,0.000,0.000,0.000,13.317,No
 Zone Internal Gains Nominal, MECH_2_C6ABCC9A,185.59,3.1,60.443,1.654E-002,9.334,3.983,0.000,0.000,0.000,0.000,13.317,No
 Zone Internal Gains Nominal, MECH_3_6E799E0F,9.56,0.2,60.443,1.654E-002,9.334,3.983,0.000,0.000,0.000,0.000,13.317,No
 Zone Internal Gains Nominal, MECH_4_99985F88,3.02,5.0E-002,60.443,1.654E-002,9.334,3.983,0.000,0.000,0.000,0.000,13.317,No
 Zone Internal Gains Nominal, NORTH_HALL,350.62,417.9,0.839,1.192,9.334,16.146,0.000,0.000,0.000,0.000,25.480,No
 Zone Internal Gains Nominal, OFFICE_1_B1424685,7.62,0.6,12.089,8.272E-002,11.201,10.764,0.000,0.000,0.000,0.000,21.965,No
 Zone Internal Gains Nominal, OFFICE_2_37CC8413,14.18,1.2,12.089,8.272E-002,11.201,10.764,0.000,0.000,0.000,0.000,21.965,No
 Zone Internal Gains Nominal, OFFICE_3_93B2C9FF,12.11,1.0,12.089,8.272E-002,11.201,10.764,0.000,0.000,0.000,0.000,21.965,No
 Zone Internal Gains Nominal, OFFICE_4_3DD7EBAB,116.09,9.6,12.089,8.272E-002,11.201,10.764,0.000,0.000,0.000,0.000,21.965,No
 Zone Internal Gains Nominal, OFFICE_5_682148B2,13.80,1.1,12.089,8.272E-002,11.201,10.764,0.000,0.000,0.000,0.000,21.965,No
 Zone Internal Gains Nominal, OFFICE_6_61DD9104,10.54,0.9,12.089,8.272E-002,11.201,10.764,0.000,0.000,0.000,0.000,21.965,No
 Zone Internal Gains Nominal, RESTROOMS,58.44,9.7,6.051,0.165,16.614,3.983,0.000,0.000,0.000,0.000,20.597,No
 Zone Internal Gains Nominal, RESTROOM_1_404313B9,8.30,1.4,6.051,0.165,9.334,3.983,0.000,0.000,0.000,0.000,13.317,No
 Zone Internal Gains Nominal, RESTROOM_2_A377B4B3,10.59,1.8,6.051,0.165,9.334,3.983,0.000,0.000,0.000,0.000,13.317,No
 Zone Internal Gains Nominal, RESTROOM_3_C201E5F7,10.30,1.7,6.051,0.165,9.334,3.983,0.000,0.000,0.000,0.000,13.317,No
 Zone Internal Gains Nominal, RESTROOM_4_33BABDA2,8.87,1.5,6.051,0.165,9.334,3.983,0.000,0.000,0.000,0.000,13.317,No
 Zone Internal Gains Nominal, RESTROOM_5_911A78E2,10.74,1.8,6.051,0.165,9.334,3.983,0.000,0.000,0.000,0.000,13.317,No
 Zone Internal Gains Nominal, RESTROOM_6_A019D741,59.83,9.9,6.051,0.165,9.334,3.983,0.000,0.000,0.000,0.000,13.317,No
 Zone Internal Gains Nominal, ROOM_13_B04291D5,249.70,103.1,2.421,0.413,11.201,10.010,0.000,0.000,0.000,0.000,21.211,No
 Zone Internal Gains Nominal, SE_HALL_PIANO,87.05,0.0,N/A,0.000,9.334,3.983,0.000,0.000,0.000,0.000,13.317,No
 Zone Internal Gains Nominal, SMALL_WEST_CORRIDOR,19.32,3.2,6.038,0.166,9.334,3.983,0.000,0.000,0.000,0.000,13.317,No
 Zone Internal Gains Nominal, SOUTH_HALL,297.29,354.3,0.839,1.192,9.334,16.146,0.000,0.000,0.000,0.000,25.480,No
 Zone Internal Gains Nominal, STAIR_1_1681051F,26.11,0.0,N/A,0.000,21.281,0.000,0.000,0.000,0.000,0.000,21.281,No
 Zone Internal Gains Nominal, STAIR_2_976E6FD5,27.13,0.0,N/A,0.000,21.281,0.000,0.000,0.000,0.000,0.000,21.281,No
 Zone Internal Gains Nominal, STAIR_3_8F089848,12.54,0.0,N/A,0.000,21.281,0.000,0.000,0.000,0.000,0.000,21.281,No
 Zone Internal Gains Nominal, UPSTAIRS_OFFICES,240.62,19.9,12.089,8.272E-002,9.334,10.764,0.000,0.000,0.000,0.000,20.098,No
 Zone Internal Gains Nominal, WEST_CORRIDOR,220.83,36.6,6.038,0.166,9.334,3.983,0.000,0.000,0.000,0.000,13.317,No
 Zone Internal Gains Nominal, WEST_OFFICE_BLOCK,189.06,15.6,12.089,8.272E-002,9.334,10.764,0.000,0.000,0.000,0.000,20.098,No
! <People Internal Gains Nominal>,Name,Schedule Name,Zone Name,Zone Floor Area {m2},# Zone Occupants,Number of People {},People/Floor Area {person/m2},Floor Area per person {m2/person},Fraction Radiant,Fraction Convected,Sensible Fraction Calculation,Activity level,ASHRAE 55 Warnings,Carbon Dioxide Generation Rate,Nominal Minimum Number of People,Nominal Maximum Number of People
 People Internal Gains Nominal, NORTH_HALL LARGEHOTEL BANQUET PEOPLE 1,LARGEHOTEL COMMON OCC,NORTH_HALL,350.62,417.9,417.9,1.192,0.839,0.300,0.700,AutoCalculate,LARGEHOTEL ACTIVITY,No,3.8200E-008,0,418
 People Internal Gains Nominal, SOUTH_HALL LARGEHOTEL BANQUET PEOPLE 2,LARGEHOTEL COMMON OCC,SOUTH_HALL,297.29,354.3,354.3,1.192,0.839,0.300,0.700,AutoCalculate,LARGEHOTEL ACTIVITY,No,3.8200E-008,0,354
 People Internal Gains Nominal, BOGPLAY_1_D1F076F9 PRE_1980::LARGEHOTEL::CAFE_PEOPLE,LARGEHOTEL COMMON OCC,BOGPLAY_1_D1F076F9,189.82,226.3,226.3,1.192,0.839,0.300,0.700,AutoCalculate,LARGEHOTEL ACTIVITY,No,3.8200E-008,0,226
 People Internal Gains Nominal, BOGPLAY_2_D145E14C PRE_1980::LARGEHOTEL::CAFE_PEOPLE,LARGEHOTEL COMMON OCC,BOGPLAY_2_D145E14C,315.77,376.4,376.4,1.192,0.839,0.300,0.700,AutoCalculate,LARGEHOTEL ACTIVITY,No,3.8200E-008,0,376
 People Internal Gains Nominal, BOGDINING_E25F401A PRE_1980::QUICKSERVICERESTAURANT::DINING_PEOPLE,QUICKSERVICERESTAURANT BLDG OCC,BOGDINING_E25F401A,135.55,168.8,168.8,1.245,0.803,0.300,0.700,AutoCalculate,QUICKSERVICERESTAURANT ACTIVITY,No,3.8200E-008,0,169
 People Internal Gains Nominal, KITCHEN_1_55B9A759 PRE_1980::QUICKSERVICERESTAURANT::KITCHEN_PEOPLE,QUICKSERVICERESTAURANT BLDG OCC,KITCHEN_1_55B9A759,136.13,12.1,12.1,8.895E-002,11.242,0.300,0.700,AutoCalculate,QUICKSERVICERESTAURANT ACTIVITY,No,3.8200E-008,0,12
 People Internal Gains Nominal, KITCHEN_2_B940211D PRE_1980::QUICKSERVICERESTAURANT::KITCHEN_PEOPLE,QUICKSERVICERESTAURANT BLDG OCC,KITCHEN_2_B940211D,134.33,11.9,11.9,8.895E-002,11.242,0.300,0.700,AutoCalculate,QUICKSERVICERESTAURANT ACTIVITY,No,3.8200E-008,0,12
 People Internal Gains Nominal, KITCHEN_3_3E9A0FB8 PRE_1980::QUICKSERVICERESTAURANT::KITCHEN_PEOPLE,QUICKSERVICERESTAURANT BLDG OCC,KITCHEN_3_3E9A0FB8,36.53,3.2,3.2,8.895E-002,11.242,0.300,0.700,AutoCalculate,QUICKSERVICERESTAURANT ACTIVITY,No,3.8200E-008,0,3
 People Internal Gains Nominal, AUDITORIUMLOWER_0B49D193 PRE_1980::SECONDARYSCHOOL::AUDITORIUM_PEOPLE,SECONDARYSCHOOL AUDITORIUM OCC,AUDITORIUMLOWER_0B49D193,340.20,562.5,562.5,1.653,0.605,0.300,0.700,AutoCalculate,SECONDARYSCHOOL ACTIVITY,No,3.8200E-008,0,534
 People Internal Gains Nominal, CLASSROOM_1_90B605A9 PRE_1980::SECONDARYSCHOOL::CLASSROOM_PEOPLE,SECONDARYSCHOOL BLDG OCC,CLASSROOM_1_90B605A9,48.67,20.1,20.1,0.413,2.421,0.300,0.700,AutoCalculate,SECONDARYSCHOOL ACTIVITY,No,3.8200E-008,0,20
 People Internal Gains Nominal, CLASSROOM_2_ECCCF8B8 PRE_1980::SECONDARYSCHOOL::CLASSROOM_PEOPLE,SECONDARYSCHOOL BLDG OCC,CLASSROOM_2_ECCCF8B8,98.49,40.7,40.7,0.413,2.421,0.300,0.700,AutoCalculate,SECONDARYSCHOOL ACTIVITY,No,3.8200E-008,0,41
 People Internal Gains Nominal, ROOM_13_B04291D5 PRE_1980::SECONDARYSCHOOL::CLASSROOM_PEOPLE,SECONDARYSCHOOL BLDG OCC,ROOM_13_B04291D5,249.70,103.1,103.1,0.413,2.421,0.300,0.700,AutoCalculate,SECONDARYSCHOOL ACTIVITY,No,3.8200E-008,0,103
 People Internal Gains Nominal, CORRIDOR_1_FA1FE4C1 PRE_1980::SECONDARYSCHOOL::CORRIDOR_PEOPLE,SECONDARYSCHOOL BLDG OCC,CORRIDOR_1_FA1FE4C1,57.50,9.5,9.5,0.166,6.038,0.300,0.700,AutoCalculate,SECONDARYSCHOOL ACTIVITY,No,3.8200E-008,0,10
 People Internal Gains Nominal, CORRIDOR_2_CFBEC8AA PRE_1980::SECONDARYSCHOOL::CORRIDOR_PEOPLE,SECONDARYSCHOOL BLDG OCC,CORRIDOR_2_CFBEC8AA,200.57,33.2,33.2,0.166,6.038,0.300,0.700,AutoCalculate,SECONDARYSCHOOL ACTIVITY,No,3.8200E-008,0,33
 People Internal Gains Nominal, CORRIDOR_3_7621FA0C PRE_1980::SECONDARYSCHOOL::CORRIDOR_PEOPLE,SECONDARYSCHOOL BLDG OCC,CORRIDOR_3_7621FA0C,119.33,19.8,19.8,0.166,6.038,0.300,0.700,AutoCalculate,SECONDARYSCHOOL ACTIVITY,No,3.8200E-008,0,20
 People Internal Gains Nominal, CORRIDOR_4_9B747DDD PRE_1980::SECONDARYSCHOOL::CORRIDOR_PEOPLE,SECONDARYSCHOOL BLDG OCC,CORRIDOR_4_9B747DDD,129.98,21.5,21.5,0.166,6.038,0.300,0.700,AutoCalculate,SECONDARYSCHOOL ACTIVITY,No,3.8200E-008,0,22
 People Internal Gains Nominal, MECH_1_40A96879 PRE_1980::SECONDARYSCHOOL::MECHANICAL_PEOPLE,SECONDARYSCHOOL BLDG OCC,MECH_1_40A96879,348.20,5.8,5.8,1.654E-002,60.443,0.300,0.700,AutoCalculate,SECONDARYSCHOOL ACTIVITY,No,3.8200E-008,0,6
 People Internal Gains Nominal, MECH_2_C6ABCC9A PRE_1980::SECONDARYSCHOOL::MECHANICAL_PEOPLE,SECONDARYSCHOOL BLDG OCC,MECH_2_C6ABCC9A,185.59,3.1,3.1,1.654E-002,60.443,0.300,0.700,AutoCalculate,SECONDARYSCHOOL ACTIVITY,No,3.8200E-008,0,3
 People Internal Gains Nominal, MECH_3_6E799E0F PRE_1980::SECONDARYSCHOOL::MECHANICAL_PEOPLE,SECONDARYSCHOOL BLDG OCC,MECH_3_6E799E0F,9.56,0.2,0.2,1.654E-002,60.443,0.300,0.700,AutoCalculate,SECONDARYSCHOOL ACTIVITY,No,3.8200E-008,0,0
 People Internal Gains Nominal, MECH_4_99985F88 PRE_1980::SECONDARYSCHOOL::MECHANICAL_PEOPLE,SECONDARYSCHOOL BLDG OCC,MECH_4_99985F88,3.02,5.0E-002,5.0E-002,1.654E-002,60.443,0.300,0.700,AutoCalculate,SECONDARYSCHOOL ACTIVITY,No,3.8200E-008,0,5E-002
 People Internal Gains Nominal, OFFICE_1_B1424685 PRE_1980::SECONDARYSCHOOL::OFFICE_PEOPLE,SECONDARYSCHOOL OFFICE OCC,OFFICE_1_B1424685,7.62,0.6,0.6,8.272E-002,12.089,0.300,0.700,AutoCalculate,SECONDARYSCHOOL ACTIVITY,No,3.8200E-008,0,1
 People Internal Gains Nominal, OFFICE_2_37CC8413 PRE_1980::SECONDARYSCHOOL::OFFICE_PEOPLE,SECONDARYSCHOOL OFFICE OCC,OFFICE_2_37CC8413,14.18,1.2,1.2,8.272E-002,12.089,0.300,0.700,AutoCalculate,SECONDARYSCHOOL ACTIVITY,No,3.8200E-008,0,1
 People Internal Gains Nominal, OFFICE_3_93B2C9FF PRE_1980::SECONDARYSCHOOL::OFFICE_PEOPLE,SECONDARYSCHOOL OFFICE OCC,OFFICE_3_93B2C9FF,12.11,1.0,1.0,8.272E-002,12.089,0.300,0.700,AutoCalculate,SECONDARYSCHOOL ACTIVITY,No,3.8200E-008,0,1
 People Internal Gains Nominal, OFFICE_4_3DD7EBAB PRE_1980::SECONDARYSCHOOL::OFFICE_PEOPLE,SECONDARYSCHOOL OFFICE OCC,OFFICE_4_3DD7EBAB,116.09,9.6,9.6,8.272E-002,12.089,0.300,0.700,AutoCalculate,SECONDARYSCHOOL ACTIVITY,No,3.8200E-008,0,9
 People Internal Gains Nominal, OFFICE_5_682148B2 PRE_1980::SECONDARYSCHOOL::OFFICE_PEOPLE,SECONDARYSCHOOL OFFICE OCC,OFFICE_5_682148B2,13.80,1.1,1.1,8.272E-002,12.089,0.300,0.700,AutoCalculate,SECONDARYSCHOOL ACTIVITY,No,3.8200E-008,0,1
 People Internal Gains Nominal, OFFICE_6_61DD9104 PRE_1980::SECONDARYSCHOOL::OFFICE_PEOPLE,SECONDARYSCHOOL OFFICE OCC,OFFICE_6_61DD9104,10.54,0.9,0.9,8.272E-002,12.089,0.300,0.700,AutoCalculate,SECONDARYSCHOOL ACTIVITY,No,3.8200E-008,0,1
 People Internal Gains Nominal, RESTROOM_1_404313B9 PRE_1980::SECONDARYSCHOOL::RESTROOM_PEOPLE,SECONDARYSCHOOL BLDG OCC,RESTROOM_1_404313B9,8.30,1.4,1.4,0.165,6.051,0.300,0.700,AutoCalculate,SECONDARYSCHOOL ACTIVITY,No,3.8200E-008,0,1
 People Internal Gains Nominal, RESTROOM_2_A377B4B3 PRE_1980::SECONDARYSCHOOL::RESTROOM_PEOPLE,SECONDARYSCHOOL BLDG OCC,RESTROOM_2_A377B4B3,10.59,1.8,1.8,0.165,6.051,0.300,0.700,AutoCalculate,SECONDARYSCHOOL ACTIVITY,No,3.8200E-008,0,2
 People Internal Gains Nominal, RESTROOM_3_C201E5F7 PRE_1980::SECONDARYSCHOOL::RESTROOM_PEOPLE,SECONDARYSCHOOL BLDG OCC,RESTROOM_3_C201E5F7,10.30,1.7,1.7,0.165,6.051,0.300,0.700,AutoCalculate,SECONDARYSCHOOL ACTIVITY,No,3.8200E-008,0,2
 People Internal Gains Nominal, RESTROOM_4_33BABDA2 PRE_1980::SECONDARYSCHOOL::RESTROOM_PEOPLE,SECONDARYSCHOOL BLDG OCC,RESTROOM_4_33BABDA2,8.87,1.5,1.5,0.165,6.051,0.300,0.700,AutoCalculate,SECONDARYSCHOOL ACTIVITY,No,3.8200E-008,0,1
 People Internal Gains Nominal, RESTROOM_5_911A78E2 PRE_1980::SECONDARYSCHOOL::RESTROOM_PEOPLE,SECONDARYSCHOOL BLDG OCC,RESTROOM_5_911A78E2,10.74,1.8,1.8,0.165,6.051,0.300,0.700,AutoCalculate,SECONDARYSCHOOL ACTIVITY,No,3.8200E-008,0,2
 People Internal Gains Nominal, RESTROOM_6_A019D741 PRE_1980::SECONDARYSCHOOL::RESTROOM_PEOPLE,SECONDARYSCHOOL BLDG OCC,RESTROOM_6_A019D741,59.83,9.9,9.9,0.165,6.051,0.300,0.700,AutoCalculate,SECONDARYSCHOOL ACTIVITY,No,3.8200E-008,0,10
 People Internal Gains Nominal, 100_AUDITORIUM SECONDARYSCHOOL AUDITORIUM PEOPLE 1,SECONDARYSCHOOL AUDITORIUM OCC,100_AUDITORIUM,565.78,935.5,935.5,1.653,0.605,0.300,0.700,AutoCalculate,SECONDARYSCHOOL ACTIVITY,No,3.8200E-008,0,889
 People Internal Gains Nominal, 112_ARC SECONDARYSCHOOL CLASSROOM PEOPLE 1,SECONDARYSCHOOL BLDG OCC,112_ARC,85.84,35.5,35.5,0.413,2.421,0.300,0.700,AutoCalculate,SECONDARYSCHOOL ACTIVITY,No,3.8200E-008,0,35
 People Internal Gains Nominal, EAST_CORRIDOR SECONDARYSCHOOL CORRIDOR PEOPLE 2,SECONDARYSCHOOL BLDG OCC,EAST_CORRIDOR,490.34,81.2,81.2,0.166,6.038,0.300,0.700,AutoCalculate,SECONDARYSCHOOL ACTIVITY,No,3.8200E-008,0,81
 People Internal Gains Nominal, EAST_SMALL_CORRIDOR SECONDARYSCHOOL CORRIDOR PEOPLE 3,SECONDARYSCHOOL BLDG OCC,EAST_SMALL_CORRIDOR,21.18,3.5,3.5,0.166,6.038,0.300,0.700,AutoCalculate,SECONDARYSCHOOL ACTIVITY,No,3.8200E-008,0,4
 People Internal Gains Nominal, SMALL_WEST_CORRIDOR SECONDARYSCHOOL CORRIDOR PEOPLE 4,SECONDARYSCHOOL BLDG OCC,SMALL_WEST_CORRIDOR,19.32,3.2,3.2,0.166,6.038,0.300,0.700,AutoCalculate,SECONDARYSCHOOL ACTIVITY,No,3.8200E-008,0,3
 People Internal Gains Nominal, WEST_CORRIDOR SECONDARYSCHOOL CORRIDOR PEOPLE 1,SECONDARYSCHOOL BLDG OCC,WEST_CORRIDOR,220.83,36.6,36.6,0.166,6.038,0.300,0.700,AutoCalculate,SECONDARYSCHOOL ACTIVITY,No,3.8200E-008,0,37
 People Internal Gains Nominal, 104_STORAGE SECONDARYSCHOOL MECHANICAL PEOPLE 1,SECONDARYSCHOOL BLDG OCC,104_STORAGE,28.43,0.5,0.5,1.654E-002,60.443,0.300,0.700,AutoCalculate,SECONDARYSCHOOL ACTIVITY,No,3.8200E-008,0,0
 People Internal Gains Nominal, 109 SECONDARYSCHOOL MECHANICAL PEOPLE 2,SECONDARYSCHOOL BLDG OCC,109,40.88,0.7,0.7,1.654E-002,60.443,0.300,0.700,AutoCalculate,SECONDARYSCHOOL ACTIVITY,No,3.8200E-008,0,1
 People Internal Gains Nominal, 102_OFFICES SECONDARYSCHOOL OFFICE PEOPLE 4,SECONDARYSCHOOL OFFICE OCC,102_OFFICES,171.41,14.2,14.2,8.272E-002,12.089,0.300,0.700,AutoCalculate,SECONDARYSCHOOL ACTIVITY,No,3.8200E-008,0,13
 People Internal Gains Nominal, 113_CAREER_SERVICES SECONDARYSCHOOL OFFICE PEOPLE 1,SECONDARYSCHOOL OFFICE OCC,113_CAREER_SERVICES,88.91,7.4,7.4,8.272E-002,12.089,0.300,0.700,AutoCalculate,SECONDARYSCHOOL ACTIVITY,No,3.8200E-008,0,7
 People Internal Gains Nominal, 114_OFFICES SECONDARYSCHOOL OFFICE PEOPLE 2,SECONDARYSCHOOL OFFICE OCC,114_OFFICES,182.18,15.1,15.1,8.272E-002,12.089,0.300,0.700,AutoCalculate,SECONDARYSCHOOL ACTIVITY,No,3.8200E-008,0,14
 People Internal Gains Nominal, UPSTAIRS_OFFICES SECONDARYSCHOOL OFFICE PEOPLE 5,SECONDARYSCHOOL OFFICE OCC,UPSTAIRS_OFFICES,240.62,19.9,19.9,8.272E-002,12.089,0.300,0.700,AutoCalculate,SECONDARYSCHOOL ACTIVITY,No,3.8200E-008,0,19
 People Internal Gains Nominal, WEST_OFFICE_BLOCK SECONDARYSCHOOL OFFICE PEOPLE 3,SECONDARYSCHOOL OFFICE OCC,WEST_OFFICE_BLOCK,189.06,15.6,15.6,8.272E-002,12.089,0.300,0.700,AutoCalculate,SECONDARYSCHOOL ACTIVITY,No,3.8200E-008,0,15
 People Internal Gains Nominal, RESTROOMS SECONDARYSCHOOL RESTROOM PEOPLE 1,SECONDARYSCHOOL BLDG OCC,RESTROOMS,58.44,9.7,9.7,0.165,6.051,0.300,0.700,AutoCalculate,SECONDARYSCHOOL ACTIVITY,No,3.8200E-008,0,10
! <Lights Internal Gains Nominal>,Name,Schedule Name,Zone Name,Zone Floor Area {m2},# Zone Occupants,Lighting Level {W},Lights/Floor Area {W/m2},Lights per person {W/person},Fraction Return Air,Fraction Radiant,Fraction Short Wave,Fraction Convected,Fraction Replaceable,End-Use Category,Nominal Minimum Lighting Level {W},Nominal Maximum Lighting Level {W}
 Lights Internal Gains Nominal, NORTH_HALL LARGEHOTEL BANQUET LIGHTS 1,LARGEHOTEL BLDG LIGHT,NORTH_HALL,350.62,417.9,3272.629,9.334,7.831,0.000,0.700,0.200,0.100,1.000,General,0.000,3272.629
 Lights Internal Gains Nominal, SOUTH_HALL LARGEHOTEL BANQUET LIGHTS 2,LARGEHOTEL BLDG LIGHT,SOUTH_HALL,297.29,354.3,2774.885,9.334,7.831,0.000,0.700,0.200,0.100,1.000,General,0.000,2774.885
 Lights Internal Gains Nominal, BOGPLAY_1_D1F076F9 PRE_1980::LARGEHOTEL::CAFE_LIGHTING,LARGEHOTEL BLDG LIGHT,BOGPLAY_1_D1F076F9,189.82,226.3,9071.619,47.790,40.095,0.000,0.700,0.200,0.100,1.000,General,0.000,9071.619
 Lights Internal Gains Nominal, BOGPLAY_2_D145E14C PRE_1980::LARGEHOTEL::CAFE_LIGHTING,LARGEHOTEL BLDG LIGHT,BOGPLAY_2_D145E14C,315.77,376.4,15090.376,47.790,40.095,0.000,0.700,0.200,0.100,1.000,General,0.000,15090.376
 Lights Internal Gains Nominal, STAIR_1_1681051F PRE_1980::MEDIUMOFFICE::STAIR_LIGHTING,OFFICE BLDG LIGHT,STAIR_1_1681051F,26.11,0.0,555.636,21.281,N/A,0.000,0.700,0.200,0.100,1.000,General,0.000,555.636
 Lights Internal Gains Nominal, STAIR_2_976E6FD5 PRE_1980::MEDIUMOFFICE::STAIR_LIGHTING,OFFICE BLDG LIGHT,STAIR_2_976E6FD5,27.13,0.0,577.283,21.281,N/A,0.000,0.700,0.200,0.100,1.000,General,0.000,577.283
 Lights Internal Gains Nominal, STAIR_3_8F089848 PRE_1980::MEDIUMOFFICE::STAIR_LIGHTING,OFFICE BLDG LIGHT,STAIR_3_8F089848,12.54,0.0,266.952,21.281,N/A,0.000,0.700,0.200,0.100,1.000,General,0.000,266.952
 Lights Internal Gains Nominal, BOGPLAY_1_B863644B PRE_1980::MEDIUMOFFICE::STORAGE_LIGHTING,OFFICE BLDG LIGHT,BOGPLAY_1_B863644B,13.75,0.0,128.373,9.334,N/A,0.000,0.700,0.200,0.100,1.000,General,0.000,128.373
 Lights Internal Gains Nominal, BOGPLAY_2_4B3AE9FE PRE_1980::MEDIUMOFFICE::STORAGE_LIGHTING,OFFICE BLDG LIGHT,BOGPLAY_2_4B3AE9FE,33.14,0.0,309.330,9.334,N/A,0.000,0.700,0.200,0.100,1.000,General,0.000,309.330
 Lights Internal Gains Nominal, BOGDINING_E25F401A PRE_1980::QUICKSERVICERESTAURANT::DINING_LIGHTING,QUICKSERVICERESTAURANT BLDG LIGHT,BOGDINING_E25F401A,135.55,168.8,9362.756,69.071,55.466,0.000,0.370,0.200,0.430,1.000,General,0.000,9362.756
 Lights Internal Gains Nominal, KITCHEN_1_55B9A759 PRE_1980::QUICKSERVICERESTAURANT::KITCHEN_LIGHTING,QUICKSERVICERESTAURANT BLDG LIGHT,KITCHEN_1_55B9A759,136.13,12.1,5692.552,41.816,470.110,0.000,0.700,0.200,0.100,1.000,General,0.000,5692.552
 Lights Internal Gains Nominal, KITCHEN_2_B940211D PRE_1980::QUICKSERVICERESTAURANT::KITCHEN_LIGHTING,QUICKSERVICERESTAURANT BLDG LIGHT,KITCHEN_2_B940211D,134.33,11.9,5617.101,41.816,470.110,0.000,0.700,0.200,0.100,1.000,General,0.000,5617.101
 Lights Internal Gains Nominal, KITCHEN_3_3E9A0FB8 PRE_1980::QUICKSERVICERESTAURANT::KITCHEN_LIGHTING,QUICKSERVICERESTAURANT BLDG LIGHT,KITCHEN_3_3E9A0FB8,36.53,3.2,1527.340,41.816,470.110,0.000,0.700,0.200,0.100,1.000,General,0.000,1527.340
 Lights Internal Gains Nominal, AUDITORIUMLOWER_0B49D193 PRE_1980::SECONDARYSCHOOL::AUDITORIUM_LIGHTING,SECONDARYSCHOOL BLDG LIGHT,AUDITORIUMLOWER_0B49D193,340.20,562.5,7112.799,20.908,12.646,0.000,0.370,0.200,0.430,1.000,General,1261.099,6401.519
 Lights Internal Gains Nominal, CLASSROOM_1_90B605A9 PRE_1980::SECONDARYSCHOOL::CLASSROOM_LIGHTING,SECONDARYSCHOOL BLDG LIGHT,CLASSROOM_1_90B605A9,48.67,20.1,545.173,11.201,27.115,0.000,0.370,0.200,0.430,1.000,General,96.659,490.656
 Lights Internal Gains Nominal, CLASSROOM_2_ECCCF8B8 PRE_1980::SECONDARYSCHOOL::CLASSROOM_LIGHTING,SECONDARYSCHOOL BLDG LIGHT,CLASSROOM_2_ECCCF8B8,98.49,40.7,1103.160,11.201,27.115,0.000,0.370,0.200,0.430,1.000,General,195.590,992.844
 Lights Internal Gains Nominal, ROOM_13_B04291D5 PRE_1980::SECONDARYSCHOOL::CLASSROOM_LIGHTING,SECONDARYSCHOOL BLDG LIGHT,ROOM_13_B04291D5,249.70,103.1,2796.854,11.201,27.115,0.000,0.370,0.200,0.430,1.000,General,495.882,2517.169
 Lights Internal Gains Nominal, CORRIDOR_1_FA1FE4C1 PRE_1980::SECONDARYSCHOOL::CORRIDOR_LIGHTING,SECONDARYSCHOOL BLDG LIGHT,CORRIDOR_1_FA1FE4C1,57.50,9.5,536.706,9.334,56.356,0.000,0.370,0.200,0.430,1.000,General,95.158,483.036
 Lights Internal Gains Nominal, CORRIDOR_2_CFBEC8AA PRE_1980::SECONDARYSCHOOL::CORRIDOR_LIGHTING,SECONDARYSCHOOL BLDG LIGHT,CORRIDOR_2_CFBEC8AA,200.57,33.2,1872.153,9.334,56.356,0.000,0.370,0.200,0.430,1.000,General,331.933,1684.937
 Lights Internal Gains Nominal, CORRIDOR_3_7621FA0C PRE_1980::SECONDARYSCHOOL::CORRIDOR_LIGHTING,SECONDARYSCHOOL BLDG LIGHT,CORRIDOR_3_7621FA0C,119.33,19.8,1113.850,9.334,56.356,0.000,0.370,0.200,0.430,1.000,General,197.486,1002.465
 Lights Internal Gains Nominal, CORRIDOR_4_9B747DDD PRE_1980::SECONDARYSCHOOL::CORRIDOR_LIGHTING,SECONDARYSCHOOL BLDG LIGHT,CORRIDOR_4_9B747DDD,129.98,21.5,1213.217,9.334,56.356,0.000,0.370,0.200,0.430,1.000,General,215.103,1091.895
 Lights Internal Gains Nominal, MECH_1_40A96879 PRE_1980::SECONDARYSCHOOL::MECHANICAL_LIGHTING,SECONDARYSCHOOL BLDG LIGHT,MECH_1_40A96879,348.20,5.8,3250.047,9.334,564.169,0.000,0.370,0.200,0.430,1.000,General,576.233,2925.042
 Lights Internal Gains Nominal, MECH_2_C6ABCC9A PRE_1980::SECONDARYSCHOOL::MECHANICAL_LIGHTING,SECONDARYSCHOOL BLDG LIGHT,MECH_2_C6ABCC9A,185.59,3.1,1732.248,9.334,564.169,0.000,0.370,0.200,0.430,1.000,General,307.128,1559.023
 Lights Internal Gains Nominal, MECH_3_6E799E0F PRE_1980::SECONDARYSCHOOL::MECHANICAL_LIGHTING,SECONDARYSCHOOL BLDG LIGHT,MECH_3_6E799E0F,9.56,0.2,89.264,9.334,564.169,0.000,0.370,0.200,0.430,1.000,General,15.826,80.337
 Lights Internal Gains Nominal, MECH_4_99985F88 PRE_1980::SECONDARYSCHOOL::MECHANICAL_LIGHTING,SECONDARYSCHOOL BLDG LIGHT,MECH_4_99985F88,3.02,5.0E-002,28.149,9.334,564.169,0.000,0.370,0.200,0.430,1.000,General,4.991,25.335
 Lights Internal Gains Nominal, OFFICE_1_B1424685 PRE_1980::SECONDARYSCHOOL::OFFICE_LIGHTING,SECONDARYSCHOOL BLDG LIGHT,OFFICE_1_B1424685,7.62,0.6,85.330,11.201,135.401,0.000,0.370,0.200,0.430,1.000,General,15.129,76.797
 Lights Internal Gains Nominal, OFFICE_2_37CC8413 PRE_1980::SECONDARYSCHOOL::OFFICE_LIGHTING,SECONDARYSCHOOL BLDG LIGHT,OFFICE_2_37CC8413,14.18,1.2,158.845,11.201,135.401,0.000,0.370,0.200,0.430,1.000,General,28.163,142.961
 Lights Internal Gains Nominal, OFFICE_3_93B2C9FF PRE_1980::SECONDARYSCHOOL::OFFICE_LIGHTING,SECONDARYSCHOOL BLDG LIGHT,OFFICE_3_93B2C9FF,12.11,1.0,135.686,11.201,135.401,0.000,0.370,0.200,0.430,1.000,General,24.057,122.117
 Lights Internal Gains Nominal, OFFICE_4_3DD7EBAB PRE_1980::SECONDARYSCHOOL::OFFICE_LIGHTING,SECONDARYSCHOOL BLDG LIGHT,OFFICE_4_3DD7EBAB,116.09,9.6,1300.314,11.201,135.401,0.000,0.370,0.200,0.430,1.000,General,230.546,1170.283
 Lights Internal Gains Nominal, OFFICE_5_682148B2 PRE_1980::SECONDARYSCHOOL::OFFICE_LIGHTING,SECONDARYSCHOOL BLDG LIGHT,OFFICE_5_682148B2,13.80,1.1,154.554,11.201,135.401,0.000,0.370,0.200,0.430,1.000,General,27.402,139.099
 Lights Internal Gains Nominal, OFFICE_6_61DD9104 PRE_1980::SECONDARYSCHOOL::OFFICE_LIGHTING,SECONDARYSCHOOL BLDG LIGHT,OFFICE_6_61DD9104,10.54,0.9,118.055,11.201,135.401,0.000,0.370,0.200,0.430,1.000,General,20.931,106.249
 Lights Internal Gains Nominal, RESTROOM_1_404313B9 PRE_1980::SECONDARYSCHOOL::RESTROOM_LIGHTING,SECONDARYSCHOOL BLDG LIGHT,RESTROOM_1_404313B9,8.30,1.4,77.509,9.334,56.478,0.000,0.370,0.200,0.430,1.000,General,13.742,69.758
 Lights Internal Gains Nominal, RESTROOM_2_A377B4B3 PRE_1980::SECONDARYSCHOOL::RESTROOM_LIGHTING,SECONDARYSCHOOL BLDG LIGHT,RESTROOM_2_A377B4B3,10.59,1.8,98.850,9.334,56.478,0.000,0.370,0.200,0.430,1.000,General,17.526,88.965
 Lights Internal Gains Nominal, RESTROOM_3_C201E5F7 PRE_1980::SECONDARYSCHOOL::RESTROOM_LIGHTING,SECONDARYSCHOOL BLDG LIGHT,RESTROOM_3_C201E5F7,10.30,1.7,96.130,9.334,56.478,0.000,0.370,0.200,0.430,1.000,General,17.044,86.517
 Lights Internal Gains Nominal, RESTROOM_4_33BABDA2 PRE_1980::SECONDARYSCHOOL::RESTROOM_LIGHTING,SECONDARYSCHOOL BLDG LIGHT,RESTROOM_4_33BABDA2,8.87,1.5,82.789,9.334,56.478,0.000,0.370,0.200,0.430,1.000,General,14.679,74.510
 Lights Internal Gains Nominal, RESTROOM_5_911A78E2 PRE_1980::SECONDARYSCHOOL::RESTROOM_LIGHTING,SECONDARYSCHOOL BLDG LIGHT,RESTROOM_5_911A78E2,10.74,1.8,100.238,9.334,56.478,0.000,0.370,0.200,0.430,1.000,General,17.772,90.214
 Lights Internal Gains Nominal, RESTROOM_6_A019D741 PRE_1980::SECONDARYSCHOOL::RESTROOM_LIGHTING,SECONDARYSCHOOL BLDG LIGHT,RESTROOM_6_A019D741,59.83,9.9,558.492,9.334,56.478,0.000,0.370,0.200,0.430,1.000,General,99.021,502.643
 Lights Internal Gains Nominal, 100_AUDITORIUM SECONDARYSCHOOL AUDITORIUM LIGHTS 1,SECONDARYSCHOOL BLDG LIGHT,100_AUDITORIUM,565.78,935.5,11829.333,20.908,12.646,0.000,0.370,0.200,0.430,1.000,General,2097.341,10646.400
 Lights Internal Gains Nominal, 112_ARC SECONDARYSCHOOL CLASSROOM LIGHTS 1,SECONDARYSCHOOL BLDG LIGHT,112_ARC,85.84,35.5,961.497,11.201,27.115,0.000,0.370,0.200,0.430,1.000,General,170.474,865.348
 Lights Internal Gains Nominal, EAST_CORRIDOR SECONDARYSCHOOL CORRIDOR LIGHTS 2,SECONDARYSCHOOL BLDG LIGHT,EAST_CORRIDOR,490.34,81.2,4576.825,9.334,56.356,0.000,0.370,0.200,0.430,1.000,General,811.471,4119.143
 Lights Internal Gains Nominal, EAST_SMALL_CORRIDOR SECONDARYSCHOOL CORRIDOR LIGHTS 3,SECONDARYSCHOOL BLDG LIGHT,EAST_SMALL_CORRIDOR,21.18,3.5,197.711,9.334,56.356,0.000,0.370,0.200,0.430,1.000,General,35.054,177.939
 Lights Internal Gains Nominal, SMALL_WEST_CORRIDOR SECONDARYSCHOOL CORRIDOR LIGHTS 4,SECONDARYSCHOOL BLDG LIGHT,SMALL_WEST_CORRIDOR,19.32,3.2,180.367,9.334,56.356,0.000,0.370,0.200,0.430,1.000,General,31.979,162.331
 Lights Internal Gains Nominal, WEST_CORRIDOR SECONDARYSCHOOL CORRIDOR LIGHTS 1,SECONDARYSCHOOL BLDG LIGHT,WEST_CORRIDOR,220.83,36.6,2061.219,9.334,56.356,0.000,0.370,0.200,0.430,1.000,General,365.454,1855.097
 Lights Internal Gains Nominal, 108 SECONDARYSCHOOL LOBBY LIGHTS 1,SECONDARYSCHOOL BLDG LIGHT,108,81.75,0.0,763.093,9.334,N/A,0.000,0.370,0.200,0.430,1.000,General,135.296,686.784
 Lights Internal Gains Nominal, AUDITORIUM_LOBBY SECONDARYSCHOOL LOBBY LIGHTS 3,SECONDARYSCHOOL BLDG LIGHT,AUDITORIUM_LOBBY,202.62,0.0,1891.257,9.334,N/A,0.000,0.370,0.200,0.430,1.000,General,335.320,1702.132
 Lights Internal Gains Nominal, SE_HALL_PIANO SECONDARYSCHOOL LOBBY LIGHTS 2,SECONDARYSCHOOL BLDG LIGHT,SE_HALL_PIANO,87.05,0.0,812.521,9.334,N/A,0.000,0.370,0.200,0.430,1.000,General,144.060,731.269
 Lights Internal Gains Nominal, 104_STORAGE SECONDARYSCHOOL MECHANICAL LIGHTS 1,SECONDARYSCHOOL BLDG LIGHT,104_STORAGE,28.43,0.5,398.023,14.001,846.254,0.000,0.370,0.200,0.430,1.000,General,70.569,358.220
 Lights Internal Gains Nominal, 109 SECONDARYSCHOOL MECHANICAL LIGHTS 2,SECONDARYSCHOOL BLDG LIGHT,109,40.88,0.7,572.320,14.001,846.254,0.000,0.370,0.200,0.430,1.000,General,101.472,515.088
 Lights Internal Gains Nominal, 102_OFFICES SECONDARYSCHOOL OFFICE LIGHTS 4,SECONDARYSCHOOL BLDG LIGHT,102_OFFICES,171.41,14.2,1599.894,9.334,112.834,0.000,0.370,0.200,0.430,1.000,General,283.661,1439.905
 Lights Internal Gains Nominal, 113_CAREER_SERVICES SECONDARYSCHOOL OFFICE LIGHTS 1,SECONDARYSCHOOL BLDG LIGHT,113_CAREER_SERVICES,88.91,7.4,829.864,9.334,112.834,0.000,0.370,0.200,0.430,1.000,General,147.135,746.878
 Lights Internal Gains Nominal, 114_OFFICES SECONDARYSCHOOL OFFICE LIGHTS 2,SECONDARYSCHOOL BLDG LIGHT,114_OFFICES,182.18,15.1,1700.484,9.334,112.834,0.000,0.370,0.200,0.430,1.000,General,301.496,1530.436
 Lights Internal Gains Nominal, UPSTAIRS_OFFICES SECONDARYSCHOOL OFFICE LIGHTS 5,SECONDARYSCHOOL BLDG LIGHT,UPSTAIRS_OFFICES,240.62,19.9,2245.922,9.334,112.834,0.000,0.370,0.200,0.430,1.000,General,398.202,2021.330
 Lights Internal Gains Nominal, WEST_OFFICE_BLOCK SECONDARYSCHOOL OFFICE LIGHTS 3,SECONDARYSCHOOL BLDG LIGHT,WEST_OFFICE_BLOCK,189.06,15.6,1764.653,9.334,112.834,0.000,0.370,0.200,0.430,1.000,General,312.873,1588.188
 Lights Internal Gains Nominal, RESTROOMS SECONDARYSCHOOL RESTROOM LIGHTS 1,SECONDARYSCHOOL BLDG LIGHT,RESTROOMS,58.44,9.7,970.880,16.614,100.530,0.000,0.370,0.200,0.430,1.000,General,172.137,873.792
! <ElectricEquipment Internal Gains Nominal>,Name,Schedule Name,Zone Name,Zone Floor Area {m2},# Zone Occupants,Equipment Level {W},Equipment/Floor Area {W/m2},Equipment per person {W/person},Fraction Latent,Fraction Radiant,Fraction Lost,Fraction Convected,End-Use SubCategory,Nominal Minimum Equipment Level {W},Nominal Maximum Equipment Level {W}
 ElectricEquipment Internal Gains Nominal, NORTH_HALL LARGEHOTEL BANQUET ELEC EQUIP 1,LARGEHOTEL KITCHEN_ELEC_EQUIP_SCH,NORTH_HALL,350.62,417.9,5661.000,16.146,13.546,0.000,0.500,0.000,0.500,Electric Equipment,0.000,1981.350
 ElectricEquipment Internal Gains Nominal, SOUTH_HALL LARGEHOTEL BANQUET ELEC EQUIP 2,LARGEHOTEL KITCHEN_ELEC_EQUIP_SCH,SOUTH_HALL,297.29,354.3,4800.000,16.146,13.546,0.000,0.500,0.000,0.500,Electric Equipment,0.000,1680.000
 ElectricEquipment Internal Gains Nominal, BOGPLAY_1_D1F076F9 PRE_1980::LARGEHOTEL::CAFE_ELECTRIC,LARGEHOTEL BLDG EQUIP,BOGPLAY_1_D1F076F9,189.82,226.3,1021.621,5.382,4.515,0.000,0.500,0.000,0.500,Electric Equipment,0.000,1021.621
 ElectricEquipment Internal Gains Nominal, BOGPLAY_2_D145E14C PRE_1980::LARGEHOTEL::CAFE_ELECTRIC,LARGEHOTEL BLDG EQUIP,BOGPLAY_2_D145E14C,315.77,376.4,1699.437,5.382,4.515,0.000,0.500,0.000,0.500,Electric Equipment,0.000,1699.437
 ElectricEquipment Internal Gains Nominal, STAIR_1_1681051F PRE_1980::MEDIUMOFFICE::STAIR_ELECTRIC,OFFICE BLDG EQUIP,STAIR_1_1681051F,26.11,0.0,0.000,0.000,N/A,0.000,0.500,0.000,0.500,Electric Equipment,0.000,0.000
 ElectricEquipment Internal Gains Nominal, STAIR_2_976E6FD5 PRE_1980::MEDIUMOFFICE::STAIR_ELECTRIC,OFFICE BLDG EQUIP,STAIR_2_976E6FD5,27.13,0.0,0.000,0.000,N/A,0.000,0.500,0.000,0.500,Electric Equipment,0.000,0.000
 ElectricEquipment Internal Gains Nominal, STAIR_3_8F089848 PRE_1980::MEDIUMOFFICE::STAIR_ELECTRIC,OFFICE BLDG EQUIP,STAIR_3_8F089848,12.54,0.0,0.000,0.000,N/A,0.000,0.500,0.000,0.500,Electric Equipment,0.000,0.000
 ElectricEquipment Internal Gains Nominal, BOGPLAY_1_B863644B PRE_1980::MEDIUMOFFICE::STORAGE_ELECTRIC,OFFICE BLDG EQUIP,BOGPLAY_1_B863644B,13.75,0.0,0.000,0.000,N/A,0.000,0.500,0.000,0.500,Electric Equipment,0.000,0.000
 ElectricEquipment Internal Gains Nominal, BOGPLAY_2_4B3AE9FE PRE_1980::MEDIUMOFFICE::STORAGE_ELECTRIC,OFFICE BLDG EQUIP,BOGPLAY_2_4B3AE9FE,33.14,0.0,0.000,0.000,N/A,0.000,0.500,0.000,0.500,Electric Equipment,0.000,0.000
 ElectricEquipment Internal Gains Nominal, BOGDINING_E25F401A PRE_1980::QUICKSERVICERESTAURANT::DINING_ELECTRIC,QUICKSERVICERESTAURANT BLDG EQUIP,BOGDINING_E25F401A,135.55,168.8,17508.877,129.167,103.724,0.250,0.300,0.000,0.450,Electric Equipment,0.000,6128.107
 ElectricEquipment Internal Gains Nominal, KITCHEN_1_55B9A759 PRE_1980::QUICKSERVICERESTAURANT::KITCHEN_ELECTRIC,QUICKSERVICERESTAURANT BLDG EQUIP,KITCHEN_1_55B9A759,136.13,12.1,41029.107,301.389,3388.324,0.250,0.300,0.300,0.150,Electric Equipment,0.000,14360.187
 ElectricEquipment Internal Gains Nominal, KITCHEN_2_B940211D PRE_1980::QUICKSERVICERESTAURANT::KITCHEN_ELECTRIC,QUICKSERVICERESTAURANT BLDG EQUIP,KITCHEN_2_B940211D,134.33,11.9,40485.298,301.389,3388.324,0.250,0.300,0.300,0.150,Electric Equipment,0.000,14169.854
 ElectricEquipment Internal Gains Nominal, KITCHEN_3_3E9A0FB8 PRE_1980::QUICKSERVICERESTAURANT::KITCHEN_ELECTRIC,QUICKSERVICERESTAURANT BLDG EQUIP,KITCHEN_3_3E9A0FB8,36.53,3.2,11008.311,301.389,3388.324,0.250,0.300,0.300,0.150,Electric Equipment,0.000,3852.909
 ElectricEquipment Internal Gains Nominal, AUDITORIUMLOWER_0B49D193 PRE_1980::SECONDARYSCHOOL::AUDITORIUM_ELECTRIC,SECONDARYSCHOOL BLDG EQUIP,AUDITORIUMLOWER_0B49D193,340.20,562.5,1684.440,4.951,2.995,0.000,0.500,0.000,0.500,Electric Equipment,421.110,1600.218
 ElectricEquipment Internal Gains Nominal, CLASSROOM_1_90B605A9 PRE_1980::SECONDARYSCHOOL::CLASSROOM_ELECTRIC,SECONDARYSCHOOL BLDG EQUIP,CLASSROOM_1_90B605A9,48.67,20.1,487.237,10.010,24.234,0.000,0.500,0.000,0.500,Electric Equipment,121.809,462.876
 ElectricEquipment Internal Gains Nominal, CLASSROOM_2_ECCCF8B8 PRE_1980::SECONDARYSCHOOL::CLASSROOM_ELECTRIC,SECONDARYSCHOOL BLDG EQUIP,CLASSROOM_2_ECCCF8B8,98.49,40.7,985.927,10.010,24.234,0.000,0.500,0.000,0.500,Electric Equipment,246.482,936.631
 ElectricEquipment Internal Gains Nominal, ROOM_13_B04291D5 PRE_1980::SECONDARYSCHOOL::CLASSROOM_ELECTRIC,SECONDARYSCHOOL BLDG EQUIP,ROOM_13_B04291D5,249.70,103.1,2499.633,10.010,24.234,0.000,0.500,0.000,0.500,Electric Equipment,624.908,2374.651
 ElectricEquipment Internal Gains Nominal, CORRIDOR_1_FA1FE4C1 PRE_1980::SECONDARYSCHOOL::CORRIDOR_ELECTRIC,SECONDARYSCHOOL BLDG EQUIP,CORRIDOR_1_FA1FE4C1,57.50,9.5,229.004,3.983,24.046,0.000,0.500,0.000,0.500,Electric Equipment,57.251,217.554
 ElectricEquipment Internal Gains Nominal, CORRIDOR_2_CFBEC8AA PRE_1980::SECONDARYSCHOOL::CORRIDOR_ELECTRIC,SECONDARYSCHOOL BLDG EQUIP,CORRIDOR_2_CFBEC8AA,200.57,33.2,798.818,3.983,24.046,0.000,0.500,0.000,0.500,Electric Equipment,199.704,758.877
 ElectricEquipment Internal Gains Nominal, CORRIDOR_3_7621FA0C PRE_1980::SECONDARYSCHOOL::CORRIDOR_ELECTRIC,SECONDARYSCHOOL BLDG EQUIP,CORRIDOR_3_7621FA0C,119.33,19.8,475.262,3.983,24.046,0.000,0.500,0.000,0.500,Electric Equipment,118.815,451.499
 ElectricEquipment Internal Gains Nominal, CORRIDOR_4_9B747DDD PRE_1980::SECONDARYSCHOOL::CORRIDOR_ELECTRIC,SECONDARYSCHOOL BLDG EQUIP,CORRIDOR_4_9B747DDD,129.98,21.5,517.660,3.983,24.046,0.000,0.500,0.000,0.500,Electric Equipment,129.415,491.777
 ElectricEquipment Internal Gains Nominal, MECH_1_40A96879 PRE_1980::SECONDARYSCHOOL::MECHANICAL_ELECTRIC,SECONDARYSCHOOL BLDG EQUIP,MECH_1_40A96879,348.20,5.8,1386.743,3.983,240.722,0.000,0.500,0.000,0.500,Electric Equipment,346.686,1317.406
 ElectricEquipment Internal Gains Nominal, MECH_2_C6ABCC9A PRE_1980::SECONDARYSCHOOL::MECHANICAL_ELECTRIC,SECONDARYSCHOOL BLDG EQUIP,MECH_2_C6ABCC9A,185.59,3.1,739.123,3.983,240.722,0.000,0.500,0.000,0.500,Electric Equipment,184.781,702.166
 ElectricEquipment Internal Gains Nominal, MECH_3_6E799E0F PRE_1980::SECONDARYSCHOOL::MECHANICAL_ELECTRIC,SECONDARYSCHOOL BLDG EQUIP,MECH_3_6E799E0F,9.56,0.2,38.087,3.983,240.722,0.000,0.500,0.000,0.500,Electric Equipment,9.522,36.183
 ElectricEquipment Internal Gains Nominal, MECH_4_99985F88 PRE_1980::SECONDARYSCHOOL::MECHANICAL_ELECTRIC,SECONDARYSCHOOL BLDG EQUIP,MECH_4_99985F88,3.02,5.0E-002,12.011,3.983,240.722,0.000,0.500,0.000,0.500,Electric Equipment,3.003,11.410
 ElectricEquipment Internal Gains Nominal, OFFICE_1_B1424685 PRE_1980::SECONDARYSCHOOL::OFFICE_ELECTRIC,SECONDARYSCHOOL BLDG EQUIP,OFFICE_1_B1424685,7.62,0.6,82.002,10.764,130.120,0.000,0.500,0.000,0.500,Electric Equipment,20.501,77.902
 ElectricEquipment Internal Gains Nominal, OFFICE_2_37CC8413 PRE_1980::SECONDARYSCHOOL::OFFICE_ELECTRIC,SECONDARYSCHOOL BLDG EQUIP,OFFICE_2_37CC8413,14.18,1.2,152.650,10.764,130.120,0.000,0.500,0.000,0.500,Electric Equipment,38.163,145.018
 ElectricEquipment Internal Gains Nominal, OFFICE_3_93B2C9FF PRE_1980::SECONDARYSCHOOL::OFFICE_ELECTRIC,SECONDARYSCHOOL BLDG EQUIP,OFFICE_3_93B2C9FF,12.11,1.0,130.394,10.764,130.120,0.000,0.500,0.000,0.500,Electric Equipment,32.599,123.874
 ElectricEquipment Internal Gains Nominal, OFFICE_4_3DD7EBAB PRE_1980::SECONDARYSCHOOL::OFFICE_ELECTRIC,SECONDARYSCHOOL BLDG EQUIP,OFFICE_4_3DD7EBAB,116.09,9.6,1249.602,10.764,130.120,0.000,0.500,0.000,0.500,Electric Equipment,312.400,1187.122
 ElectricEquipment Internal Gains Nominal, OFFICE_5_682148B2 PRE_1980::SECONDARYSCHOOL::OFFICE_ELECTRIC,SECONDARYSCHOOL BLDG EQUIP,OFFICE_5_682148B2,13.80,1.1,148.527,10.764,130.120,0.000,0.500,0.000,0.500,Electric Equipment,37.132,141.100
 ElectricEquipment Internal Gains Nominal, OFFICE_6_61DD9104 PRE_1980::SECONDARYSCHOOL::OFFICE_ELECTRIC,SECONDARYSCHOOL BLDG EQUIP,OFFICE_6_61DD9104,10.54,0.9,113.451,10.764,130.120,0.000,0.500,0.000,0.500,Electric Equipment,28.363,107.778
 ElectricEquipment Internal Gains Nominal, RESTROOM_1_404313B9 PRE_1980::SECONDARYSCHOOL::RESTROOM_ELECTRIC,SECONDARYSCHOOL BLDG EQUIP,RESTROOM_1_404313B9,8.30,1.4,33.072,3.983,24.098,0.000,0.500,0.000,0.500,Electric Equipment,8.268,31.418
 ElectricEquipment Internal Gains Nominal, RESTROOM_2_A377B4B3 PRE_1980::SECONDARYSCHOOL::RESTROOM_ELECTRIC,SECONDARYSCHOOL BLDG EQUIP,RESTROOM_2_A377B4B3,10.59,1.8,42.178,3.983,24.098,0.000,0.500,0.000,0.500,Electric Equipment,10.544,40.069
 ElectricEquipment Internal Gains Nominal, RESTROOM_3_C201E5F7 PRE_1980::SECONDARYSCHOOL::RESTROOM_ELECTRIC,SECONDARYSCHOOL BLDG EQUIP,RESTROOM_3_C201E5F7,10.30,1.7,41.017,3.983,24.098,0.000,0.500,0.000,0.500,Electric Equipment,10.254,38.966
 ElectricEquipment Internal Gains Nominal, RESTROOM_4_33BABDA2 PRE_1980::SECONDARYSCHOOL::RESTROOM_ELECTRIC,SECONDARYSCHOOL BLDG EQUIP,RESTROOM_4_33BABDA2,8.87,1.5,35.325,3.983,24.098,0.000,0.500,0.000,0.500,Electric Equipment,8.831,33.559
 ElectricEquipment Internal Gains Nominal, RESTROOM_5_911A78E2 PRE_1980::SECONDARYSCHOOL::RESTROOM_ELECTRIC,SECONDARYSCHOOL BLDG EQUIP,RESTROOM_5_911A78E2,10.74,1.8,42.770,3.983,24.098,0.000,0.500,0.000,0.500,Electric Equipment,10.693,40.632
 ElectricEquipment Internal Gains Nominal, RESTROOM_6_A019D741 PRE_1980::SECONDARYSCHOOL::RESTROOM_ELECTRIC,SECONDARYSCHOOL BLDG EQUIP,RESTROOM_6_A019D741,59.83,9.9,238.300,3.983,24.098,0.000,0.500,0.000,0.500,Electric Equipment,59.575,226.385
 ElectricEquipment Internal Gains Nominal, 100_AUDITORIUM SECONDARYSCHOOL AUDITORIUM ELEC EQUIP 1,SECONDARYSCHOOL BLDG EQUIP,100_AUDITORIUM,565.78,935.5,2801.400,4.951,2.995,0.000,0.500,0.000,0.500,Electric Equipment,700.350,2661.330
 ElectricEquipment Internal Gains Nominal, 112_ARC SECONDARYSCHOOL CLASSROOM ELEC EQUIP 1,SECONDARYSCHOOL BLDG EQUIP,112_ARC,85.84,35.5,859.320,10.010,24.234,0.000,0.500,0.000,0.500,Electric Equipment,214.830,816.354
 ElectricEquipment Internal Gains Nominal, EAST_CORRIDOR SECONDARYSCHOOL CORRIDOR ELEC EQUIP 2,SECONDARYSCHOOL BLDG EQUIP,EAST_CORRIDOR,490.34,81.2,1952.860,3.983,24.046,0.000,0.500,0.000,0.500,Electric Equipment,488.215,1855.217
 ElectricEquipment Internal Gains Nominal, EAST_SMALL_CORRIDOR SECONDARYSCHOOL CORRIDOR ELEC EQUIP 3,SECONDARYSCHOOL BLDG EQUIP,EAST_SMALL_CORRIDOR,21.18,3.5,84.360,3.983,24.046,0.000,0.500,0.000,0.500,Electric Equipment,21.090,80.142
 ElectricEquipment Internal Gains Nominal, SMALL_WEST_CORRIDOR SECONDARYSCHOOL CORRIDOR ELEC EQUIP 4,SECONDARYSCHOOL BLDG EQUIP,SMALL_WEST_CORRIDOR,19.32,3.2,76.960,3.983,24.046,0.000,0.500,0.000,0.500,Electric Equipment,19.240,73.112
 ElectricEquipment Internal Gains Nominal, WEST_CORRIDOR SECONDARYSCHOOL CORRIDOR ELEC EQUIP 1,SECONDARYSCHOOL BLDG EQUIP,WEST_CORRIDOR,220.83,36.6,879.490,3.983,24.046,0.000,0.500,0.000,0.500,Electric Equipment,219.873,835.516
 ElectricEquipment Internal Gains Nominal, 108 SECONDARYSCHOOL LOBBY ELEC EQUIP 1,SECONDARYSCHOOL BLDG EQUIP,108,81.75,0.0,325.600,3.983,N/A,0.000,0.500,0.000,0.500,Electric Equipment,81.400,309.320
 ElectricEquipment Internal Gains Nominal, AUDITORIUM_LOBBY SECONDARYSCHOOL LOBBY ELEC EQUIP 3,SECONDARYSCHOOL BLDG EQUIP,AUDITORIUM_LOBBY,202.62,0.0,806.970,3.983,N/A,0.000,0.500,0.000,0.500,Electric Equipment,201.743,766.622
 ElectricEquipment Internal Gains Nominal, SE_HALL_PIANO SECONDARYSCHOOL LOBBY ELEC EQUIP 2,SECONDARYSCHOOL BLDG EQUIP,SE_HALL_PIANO,87.05,0.0,346.690,3.983,N/A,0.000,0.500,0.000,0.500,Electric Equipment,86.673,329.356
 ElectricEquipment Internal Gains Nominal, 104_STORAGE SECONDARYSCHOOL MECHANICAL ELEC EQUIP 1,SECONDARYSCHOOL BLDG EQUIP,104_STORAGE,28.43,0.5,113.220,3.983,240.722,0.000,0.500,0.000,0.500,Electric Equipment,28.305,107.559
 ElectricEquipment Internal Gains Nominal, 109 SECONDARYSCHOOL MECHANICAL ELEC EQUIP 2,SECONDARYSCHOOL BLDG EQUIP,109,40.88,0.7,162.800,3.983,240.722,0.000,0.500,0.000,0.500,Electric Equipment,40.700,154.660
 ElectricEquipment Internal Gains Nominal, 102_OFFICES SECONDARYSCHOOL OFFICE ELEC EQUIP 4,SECONDARYSCHOOL BLDG EQUIP,102_OFFICES,171.41,14.2,1845.000,10.764,130.120,0.000,0.500,0.000,0.500,Electric Equipment,461.250,1752.750
 ElectricEquipment Internal Gains Nominal, 113_CAREER_SERVICES SECONDARYSCHOOL OFFICE ELEC EQUIP 1,SECONDARYSCHOOL BLDG EQUIP,113_CAREER_SERVICES,88.91,7.4,957.000,10.764,130.120,0.000,0.500,0.000,0.500,Electric Equipment,239.250,909.150
 ElectricEquipment Internal Gains Nominal, 114_OFFICES SECONDARYSCHOOL OFFICE ELEC EQUIP 2,SECONDARYSCHOOL BLDG EQUIP,114_OFFICES,182.18,15.1,1961.000,10.764,130.120,0.000,0.500,0.000,0.500,Electric Equipment,490.250,1862.950
 ElectricEquipment Internal Gains Nominal, UPSTAIRS_OFFICES SECONDARYSCHOOL OFFICE ELEC EQUIP 5,SECONDARYSCHOOL BLDG EQUIP,UPSTAIRS_OFFICES,240.62,19.9,2590.000,10.764,130.120,0.000,0.500,0.000,0.500,Electric Equipment,647.500,2460.500
 ElectricEquipment Internal Gains Nominal, WEST_OFFICE_BLOCK SECONDARYSCHOOL OFFICE ELEC EQUIP 3,SECONDARYSCHOOL BLDG EQUIP,WEST_OFFICE_BLOCK,189.06,15.6,2035.000,10.764,130.120,0.000,0.500,0.000,0.500,Electric Equipment,508.750,1933.250
 ElectricEquipment Internal Gains Nominal, RESTROOMS SECONDARYSCHOOL RESTROOM ELEC EQUIP 1,SECONDARYSCHOOL BLDG EQUIP,RESTROOMS,58.44,9.7,232.730,3.983,24.098,0.000,0.500,0.000,0.500,Electric Equipment,58.183,221.094
! <GasEquipment Internal Gains Nominal>,Name,Schedule Name,Zone Name,Zone Floor Area {m2},# Zone Occupants,Equipment Level {W},Equipment/Floor Area {W/m2},Equipment per person {W/person},Fraction Latent,Fraction Radiant,Fraction Lost,Fraction Convected,End-Use SubCategory,Nominal Minimum Equipment Level {W},Nominal Maximum Equipment Level {W}
 GasEquipment Internal Gains Nominal, KITCHEN_1_55B9A759 PRE_1980::QUICKSERVICERESTAURANT::KITCHEN_GAS,QUICKSERVICERESTAURANT GAS EQUIP,KITCHEN_1_55B9A759,136.13,12.1,175900.571,1292.120,14526.472,0.100,0.200,0.700,0.000,Gas Equipment,0.000,47493.154
 GasEquipment Internal Gains Nominal, KITCHEN_2_B940211D PRE_1980::QUICKSERVICERESTAURANT::KITCHEN_GAS,QUICKSERVICERESTAURANT GAS EQUIP,KITCHEN_2_B940211D,134.33,11.9,173569.147,1292.120,14526.472,0.100,0.200,0.700,0.000,Gas Equipment,0.000,46863.670
 GasEquipment Internal Gains Nominal, KITCHEN_3_3E9A0FB8 PRE_1980::QUICKSERVICERESTAURANT::KITCHEN_GAS,QUICKSERVICERESTAURANT GAS EQUIP,KITCHEN_3_3E9A0FB8,36.53,3.2,47194.989,1292.120,14526.472,0.100,0.200,0.700,0.000,Gas Equipment,0.000,12742.647
! <Shadowing/Sun Position Calculations Annual Simulations>, Shading Calculation Method, Shading Calculation Update Frequency Method, Shading Calculation Update Frequency {days}, Maximum Figures in Shadow Overlap Calculations {}, Polygon Clipping Algorithm, Pixel Counting Resolution, Sky Diffuse Modeling Algorithm, Output External Shading Calculation Results, Disable Self-Shading Within Shading Zone Groups, Disable Self-Shading From Shading Zone Groups to Other Zones
Shadowing/Sun Position Calculations Annual Simulations,PolygonClipping,Periodic,30,15000,SutherlandHodgman,512,SimpleSkyDiffuseModeling,No,No,No
! <Water Heater Information>,Type,Name,Volume {m3},Maximum Capacity {W},Standard Rated Recovery Efficiency, Standard Rated Energy Factor
! <ZoneInfiltration Airflow Stats Nominal>,Name,Schedule Name,Zone Name, Zone Floor Area {m2}, # Zone Occupants,Design Volume Flow Rate {m3/s},Volume Flow Rate/Floor Area {m3/s-m2},Volume Flow Rate/Exterior Surface Area {m3/s-m2},ACH - Air Changes per Hour,Equation A - Constant Term Coefficient {},Equation B - Temperature Term Coefficient {1/C},Equation C - Velocity Term Coefficient {s/m}, Equation D - Velocity Squared Term Coefficient {s2/m2}
 ZoneInfiltration Airflow Stats Nominal, BOGPLAY_1_D1F076F9 PRE_1980::LARGEHOTEL::CAFE_INFILTRATION,LARGEHOTEL INFIL QUARTER ON,BOGPLAY_1_D1F076F9,189.82,226.3,0.000,0.000,N/A,0.000,1.000,0.000,0.000,0.000
 ZoneInfiltration Airflow Stats Nominal, BOGPLAY_2_D145E14C PRE_1980::LARGEHOTEL::CAFE_INFILTRATION,LARGEHOTEL INFIL QUARTER ON,BOGPLAY_2_D145E14C,315.77,376.4,0.000,0.000,N/A,0.000,1.000,0.000,0.000,0.000
 ZoneInfiltration Airflow Stats Nominal, STAIR_1_1681051F PRE_1980::MEDIUMOFFICE::STAIR_INFILTRATION,MEDIUM OFFICE INFIL QUARTER ON,STAIR_1_1681051F,26.11,0.0,0.000,0.000,N/A,0.000,1.000,0.000,0.000,0.000
 ZoneInfiltration Airflow Stats Nominal, STAIR_2_976E6FD5 PRE_1980::MEDIUMOFFICE::STAIR_INFILTRATION,MEDIUM OFFICE INFIL QUARTER ON,STAIR_2_976E6FD5,27.13,0.0,0.000,0.000,N/A,0.000,1.000,0.000,0.000,0.000
 ZoneInfiltration Airflow Stats Nominal, STAIR_3_8F089848 PRE_1980::MEDIUMOFFICE::STAIR_INFILTRATION,MEDIUM OFFICE INFIL QUARTER ON,STAIR_3_8F089848,12.54,0.0,0.000,0.000,N/A,0.000,1.000,0.000,0.000,0.000
 ZoneInfiltration Airflow Stats Nominal, BOGPLAY_1_B863644B PRE_1980::MEDIUMOFFICE::STORAGE_INFILTRATION,MEDIUM OFFICE INFIL QUARTER ON,BOGPLAY_1_B863644B,13.75,0.0,0.000,0.000,N/A,0.000,1.000,0.000,0.000,0.000
 ZoneInfiltration Airflow Stats Nominal, BOGPLAY_2_4B3AE9FE PRE_1980::MEDIUMOFFICE::STORAGE_INFILTRATION,MEDIUM OFFICE INFIL QUARTER ON,BOGPLAY_2_4B3AE9FE,33.14,0.0,0.000,0.000,N/A,0.000,1.000,0.000,0.000,0.000
 ZoneInfiltration Airflow Stats Nominal, BOGDINING_E25F401A PRE_1980::QUICKSERVICERESTAURANT::DINING_INFILTRATION,QUICKSERVICERESTAURANT INFIL HALF ON,BOGDINING_E25F401A,135.55,168.8,0.000,0.000,N/A,0.000,1.000,0.000,0.000,0.000
 ZoneInfiltration Airflow Stats Nominal, KITCHEN_1_55B9A759 PRE_1980::QUICKSERVICERESTAURANT::KITCHEN_INFILTRATION,QUICKSERVICERESTAURANT INFIL HALF ON,KITCHEN_1_55B9A759,136.13,12.1,0.000,0.000,N/A,0.000,1.000,0.000,0.000,0.000
 ZoneInfiltration Airflow Stats Nominal, KITCHEN_2_B940211D PRE_1980::QUICKSERVICERESTAURANT::KITCHEN_INFILTRATION,QUICKSERVICERESTAURANT INFIL HALF ON,KITCHEN_2_B940211D,134.33,11.9,0.000,0.000,N/A,0.000,1.000,0.000,0.000,0.000
 ZoneInfiltration Airflow Stats Nominal, KITCHEN_3_3E9A0FB8 PRE_1980::QUICKSERVICERESTAURANT::KITCHEN_INFILTRATION,QUICKSERVICERESTAURANT INFIL HALF ON,KITCHEN_3_3E9A0FB8,36.53,3.2,0.000,0.000,N/A,0.000,1.000,0.000,0.000,0.000
 ZoneInfiltration Airflow Stats Nominal, AUDITORIUMLOWER_0B49D193 PRE_1980::SECONDARYSCHOOL::AUDITORIUM_INFILTRATION,SECONDARYSCHOOL INFIL,AUDITORIUMLOWER_0B49D193,340.20,562.5,0.000,0.000,N/A,0.000,1.000,0.000,0.000,0.000
 ZoneInfiltration Airflow Stats Nominal, CLASSROOM_1_90B605A9 PRE_1980::SECONDARYSCHOOL::CLASSROOM_INFILTRATION,SECONDARYSCHOOL INFIL,CLASSROOM_1_90B605A9,48.67,20.1,0.000,0.000,N/A,0.000,1.000,0.000,0.000,0.000
 ZoneInfiltration Airflow Stats Nominal, CLASSROOM_2_ECCCF8B8 PRE_1980::SECONDARYSCHOOL::CLASSROOM_INFILTRATION,SECONDARYSCHOOL INFIL,CLASSROOM_2_ECCCF8B8,98.49,40.7,0.000,0.000,N/A,0.000,1.000,0.000,0.000,0.000
 ZoneInfiltration Airflow Stats Nominal, ROOM_13_B04291D5 PRE_1980::SECONDARYSCHOOL::CLASSROOM_INFILTRATION,SECONDARYSCHOOL INFIL,ROOM_13_B04291D5,249.70,103.1,4.998E-002,2.002E-004,6.037E-004,0.197,1.000,0.000,0.000,0.000
 ZoneInfiltration Airflow Stats Nominal, CORRIDOR_1_FA1FE4C1 PRE_1980::SECONDARYSCHOOL::CORRIDOR_INFILTRATION,SECONDARYSCHOOL INFIL,CORRIDOR_1_FA1FE4C1,57.50,9.5,3.341E-002,5.810E-004,6.037E-004,0.571,1.000,0.000,0.000,0.000
 ZoneInfiltration Airflow Stats Nominal, CORRIDOR_2_CFBEC8AA PRE_1980::SECONDARYSCHOOL::CORRIDOR_INFILTRATION,SECONDARYSCHOOL INFIL,CORRIDOR_2_CFBEC8AA,200.57,33.2,0.000,0.000,N/A,0.000,1.000,0.000,0.000,0.000
 ZoneInfiltration Airflow Stats Nominal, CORRIDOR_3_7621FA0C PRE_1980::SECONDARYSCHOOL::CORRIDOR_INFILTRATION,SECONDARYSCHOOL INFIL,CORRIDOR_3_7621FA0C,119.33,19.8,0.000,0.000,N/A,0.000,1.000,0.000,0.000,0.000
 ZoneInfiltration Airflow Stats Nominal, CORRIDOR_4_9B747DDD PRE_1980::SECONDARYSCHOOL::CORRIDOR_INFILTRATION,SECONDARYSCHOOL INFIL,CORRIDOR_4_9B747DDD,129.98,21.5,0.000,0.000,N/A,0.000,1.000,0.000,0.000,0.000
 ZoneInfiltration Airflow Stats Nominal, MECH_1_40A96879 PRE_1980::SECONDARYSCHOOL::MECHANICAL_INFILTRATION,SECONDARYSCHOOL INFIL,MECH_1_40A96879,348.20,5.8,0.000,0.000,N/A,0.000,1.000,0.000,0.000,0.000
 ZoneInfiltration Airflow Stats Nominal, MECH_2_C6ABCC9A PRE_1980::SECONDARYSCHOOL::MECHANICAL_INFILTRATION,SECONDARYSCHOOL INFIL,MECH_2_C6ABCC9A,185.59,3.1,0.000,0.000,N/A,0.000,1.000,0.000,0.000,0.000
 ZoneInfiltration Airflow Stats Nominal, MECH_3_6E799E0F PRE_1980::SECONDARYSCHOOL::MECHANICAL_INFILTRATION,SECONDARYSCHOOL INFIL,MECH_3_6E799E0F,9.56,0.2,0.000,0.000,N/A,0.000,1.000,0.000,0.000,0.000
 ZoneInfiltration Airflow Stats Nominal, MECH_4_99985F88 PRE_1980::SECONDARYSCHOOL::MECHANICAL_INFILTRATION,SECONDARYSCHOOL INFIL,MECH_4_99985F88,3.02,5.0E-002,0.000,0.000,N/A,0.000,1.000,0.000,0.000,0.000
 ZoneInfiltration Airflow Stats Nominal, OFFICE_1_B1424685 PRE_1980::SECONDARYSCHOOL::OFFICE_INFILTRATION,SECONDARYSCHOOL INFIL,OFFICE_1_B1424685,7.62,0.6,0.000,0.000,N/A,0.000,1.000,0.000,0.000,0.000
 ZoneInfiltration Airflow Stats Nominal, OFFICE_2_37CC8413 PRE_1980::SECONDARYSCHOOL::OFFICE_INFILTRATION,SECONDARYSCHOOL INFIL,OFFICE_2_37CC8413,14.18,1.2,0.000,0.000,N/A,0.000,1.000,0.000,0.000,0.000
 ZoneInfiltration Airflow Stats Nominal, OFFICE_3_93B2C9FF PRE_1980::SECONDARYSCHOOL::OFFICE_INFILTRATION,SECONDARYSCHOOL INFIL,OFFICE_3_93B2C9FF,12.11,1.0,0.000,0.000,N/A,0.000,1.000,0.000,0.000,0.000
 ZoneInfiltration Airflow Stats Nominal, OFFICE_4_3DD7EBAB PRE_1980::SECONDARYSCHOOL::OFFICE_INFILTRATION,SECONDARYSCHOOL INFIL,OFFICE_4_3DD7EBAB,116.09,9.6,3.341E-002,2.878E-004,6.037E-004,0.283,1.000,0.000,0.000,0.000
 ZoneInfiltration Airflow Stats Nominal, OFFICE_5_682148B2 PRE_1980::SECONDARYSCHOOL::OFFICE_INFILTRATION,SECONDARYSCHOOL INFIL,OFFICE_5_682148B2,13.80,1.1,0.000,0.000,N/A,0.000,1.000,0.000,0.000,0.000
 ZoneInfiltration Airflow Stats Nominal, OFFICE_6_61DD9104 PRE_1980::SECONDARYSCHOOL::OFFICE_INFILTRATION,SECONDARYSCHOOL INFIL,OFFICE_6_61DD9104,10.54,0.9,0.000,0.000,N/A,0.000,1.000,0.000,0.000,0.000
 ZoneInfiltration Airflow Stats Nominal, RESTROOM_1_404313B9 PRE_1980::SECONDARYSCHOOL::RESTROOM_INFILTRATION,SECONDARYSCHOOL INFIL,RESTROOM_1_404313B9,8.30,1.4,0.000,0.000,N/A,0.000,1.000,0.000,0.000,0.000
 ZoneInfiltration Airflow Stats Nominal, RESTROOM_2_A377B4B3 PRE_1980::SECONDARYSCHOOL::RESTROOM_INFILTRATION,SECONDARYSCHOOL INFIL,RESTROOM_2_A377B4B3,10.59,1.8,0.000,0.000,N/A,0.000,1.000,0.000,0.000,0.000
 ZoneInfiltration Airflow Stats Nominal, RESTROOM_3_C201E5F7 PRE_1980::SECONDARYSCHOOL::RESTROOM_INFILTRATION,SECONDARYSCHOOL INFIL,RESTROOM_3_C201E5F7,10.30,1.7,0.000,0.000,N/A,0.000,1.000,0.000,0.000,0.000
 ZoneInfiltration Airflow Stats Nominal, RESTROOM_4_33BABDA2 PRE_1980::SECONDARYSCHOOL::RESTROOM_INFILTRATION,SECONDARYSCHOOL INFIL,RESTROOM_4_33BABDA2,8.87,1.5,0.000,0.000,N/A,0.000,1.000,0.000,0.000,0.000
 ZoneInfiltration Airflow Stats Nominal, RESTROOM_5_911A78E2 PRE_1980::SECONDARYSCHOOL::RESTROOM_INFILTRATION,SECONDARYSCHOOL INFIL,RESTROOM_5_911A78E2,10.74,1.8,0.000,0.000,N/A,0.000,1.000,0.000,0.000,0.000
 ZoneInfiltration Airflow Stats Nominal, RESTROOM_6_A019D741 PRE_1980::SECONDARYSCHOOL::RESTROOM_INFILTRATION,SECONDARYSCHOOL INFIL,RESTROOM_6_A019D741,59.83,9.9,0.000,0.000,N/A,0.000,1.000,0.000,0.000,0.000
! <AirFlow Model>, Simple
 AirFlow Model, Simple
! <RoomAir Model>, Zone Name, Mixing/Mundt/UCSDDV/UCSDCV/UCSDUFI/UCSDUFE/User Defined
RoomAir Model,100_AUDITORIUM,Mixing/Well-Stirred
RoomAir Model,102_OFFICES,Mixing/Well-Stirred
RoomAir Model,104_STORAGE,Mixing/Well-Stirred
RoomAir Model,108,Mixing/Well-Stirred
RoomAir Model,109,Mixing/Well-Stirred
RoomAir Model,112_ARC,Mixing/Well-Stirred
RoomAir Model,113_CAREER_SERVICES,Mixing/Well-Stirred
RoomAir Model,114_OFFICES,Mixing/Well-Stirred
RoomAir Model,AUDITORIUMLOWER_0B49D193,Mixing/Well-Stirred
RoomAir Model,AUDITORIUM_LOBBY,Mixing/Well-Stirred
RoomAir Model,BOGDINING_E25F401A,Mixing/Well-Stirred
RoomAir Model,BOGPLAY_1_B863644B,Mixing/Well-Stirred
RoomAir Model,BOGPLAY_1_D1F076F9,Mixing/Well-Stirred
RoomAir Model,BOGPLAY_2_4B3AE9FE,Mixing/Well-Stirred
RoomAir Model,BOGPLAY_2_D145E14C,Mixing/Well-Stirred
RoomAir Model,CLASSROOM_1_90B605A9,Mixing/Well-Stirred
RoomAir Model,CLASSROOM_2_ECCCF8B8,Mixing/Well-Stirred
RoomAir Model,CORRIDOR_1_FA1FE4C1,Mixing/Well-Stirred
RoomAir Model,CORRIDOR_2_CFBEC8AA,Mixing/Well-Stirred
RoomAir Model,CORRIDOR_3_7621FA0C,Mixing/Well-Stirred
RoomAir Model,CORRIDOR_4_9B747DDD,Mixing/Well-Stirred
RoomAir Model,EAST_CORRIDOR,Mixing/Well-Stirred
RoomAir Model,EAST_SMALL_CORRIDOR,Mixing/Well-Stirred
RoomAir Model,KITCHEN_1_55B9A759,Mixing/Well-Stirred
RoomAir Model,KITCHEN_2_B940211D,Mixing/Well-Stirred
RoomAir Model,KITCHEN_3_3E9A0FB8,Mixing/Well-Stirred
RoomAir Model,MECH_1_40A96879,Mixing/Well-Stirred
RoomAir Model,MECH_2_C6ABCC9A,Mixing/Well-Stirred
RoomAir Model,MECH_3_6E799E0F,Mixing/Well-Stirred
RoomAir Model,MECH_4_99985F88,Mixing/Well-Stirred
RoomAir Model,NORTH_HALL,Mixing/Well-Stirred
RoomAir Model,OFFICE_1_B1424685,Mixing/Well-Stirred
RoomAir Model,OFFICE_2_37CC8413,Mixing/Well-Stirred
RoomAir Model,OFFICE_3_93B2C9FF,Mixing/Well-Stirred
RoomAir Model,OFFICE_4_3DD7EBAB,Mixing/Well-Stirred
RoomAir Model,OFFICE_5_682148B2,Mixing/Well-Stirred
RoomAir Model,OFFICE_6_61DD9104,Mixing/Well-Stirred
RoomAir Model,RESTROOMS,Mixing/Well-Stirred
RoomAir Model,RESTROOM_1_404313B9,Mixing/Well-Stirred
RoomAir Model,RESTROOM_2_A377B4B3,Mixing/Well-Stirred
RoomAir Model,RESTROOM_3_C201E5F7,Mixing/Well-Stirred
RoomAir Model,RESTROOM_4_33BABDA2,Mixing/Well-Stirred
RoomAir Model,RESTROOM_5_911A78E2,Mixing/Well-Stirred
RoomAir Model,RESTROOM_6_A019D741,Mixing/Well-Stirred
RoomAir Model,ROOM_13_B04291D5,Mixing/Well-Stirred
RoomAir Model,SE_HALL_PIANO,Mixing/Well-Stirred
RoomAir Model,SMALL_WEST_CORRIDOR,Mixing/Well-Stirred
RoomAir Model,SOUTH_HALL,Mixing/Well-Stirred
RoomAir Model,STAIR_1_1681051F,Mixing/Well-Stirred
RoomAir Model,STAIR_2_976E6FD5,Mixing/Well-Stirred
RoomAir Model,STAIR_3_8F089848,Mixing/Well-Stirred
RoomAir Model,UPSTAIRS_OFFICES,Mixing/Well-Stirred
RoomAir Model,WEST_CORRIDOR,Mixing/Well-Stirred
RoomAir Model,WEST_OFFICE_BLOCK,Mixing/Well-Stirred
! <AirflowNetwork Model:Control>, No Multizone or Distribution/Multizone with Distribution/Multizone without Distribution/Multizone with Distribution only during Fan Operation
AirflowNetwork Model:Control,NoMultizoneOrDistribution
! <Zone Volume Capacitance Multiplier>, Sensible Heat Capacity Multiplier, Moisture Capacity Multiplier, Carbon Dioxide Capacity Multiplier, Generic Contaminant Capacity Multiplier
Zone Volume Capacitance Multiplier,   1.000 ,   1.000,   1.000,   1.000
! <Load Timesteps in Zone Design Calculation Averaging Window>, Value
 Load Timesteps in Zone Design Calculation Averaging Window,    6
! <Heating Sizing Factor Information>, Sizing Factor ID, Value
 Heating Sizing Factor Information, Global,   1.2500    
 Heating Sizing Factor Information, Zone 100_AUDITORIUM,   1.2500    
 Heating Sizing Factor Information, Zone 102_OFFICES,   1.2500    
 Heating Sizing Factor Information, Zone 104_STORAGE,   1.2500    
 Heating Sizing Factor Information, Zone 108,   1.2500    
 Heating Sizing Factor Information, Zone 109,   1.2500    
 Heating Sizing Factor Information, Zone 112_ARC,   1.2500    
 Heating Sizing Factor Information, Zone 113_CAREER_SERVICES,   1.2500    
 Heating Sizing Factor Information, Zone 114_OFFICES,   1.2500    
 Heating Sizing Factor Information, Zone AUDITORIUMLOWER_0B49D193,   1.2500    
 Heating Sizing Factor Information, Zone AUDITORIUM_LOBBY,   1.2500    
 Heating Sizing Factor Information, Zone BOGDINING_E25F401A,   1.2500    
 Heating Sizing Factor Information, Zone BOGPLAY_1_B863644B,   1.2500    
 Heating Sizing Factor Information, Zone BOGPLAY_1_D1F076F9,   1.2500    
 Heating Sizing Factor Information, Zone BOGPLAY_2_4B3AE9FE,   1.2500    
 Heating Sizing Factor Information, Zone BOGPLAY_2_D145E14C,   1.2500    
 Heating Sizing Factor Information, Zone CLASSROOM_1_90B605A9,   1.2500    
 Heating Sizing Factor Information, Zone CLASSROOM_2_ECCCF8B8,   1.2500    
 Heating Sizing Factor Information, Zone CORRIDOR_1_FA1FE4C1,   1.2500    
 Heating Sizing Factor Information, Zone CORRIDOR_2_CFBEC8AA,   1.2500    
 Heating Sizing Factor Information, Zone CORRIDOR_3_7621FA0C,   1.2500    
 Heating Sizing Factor Information, Zone CORRIDOR_4_9B747DDD,   1.2500    
 Heating Sizing Factor Information, Zone EAST_CORRIDOR,   1.2500    
 Heating Sizing Factor Information, Zone EAST_SMALL_CORRIDOR,   1.2500    
 Heating Sizing Factor Information, Zone KITCHEN_1_55B9A759,   1.2500    
 Heating Sizing Factor Information, Zone KITCHEN_2_B940211D,   1.2500    
 Heating Sizing Factor Information, Zone KITCHEN_3_3E9A0FB8,   1.2500    
 Heating Sizing Factor Information, Zone MECH_1_40A96879,   1.2500    
 Heating Sizing Factor Information, Zone MECH_2_C6ABCC9A,   1.2500    
 Heating Sizing Factor Information, Zone MECH_3_6E799E0F,   1.2500    
 Heating Sizing Factor Information, Zone MECH_4_99985F88,   1.2500    
 Heating Sizing Factor Information, Zone NORTH_HALL,   1.2500    
 Heating Sizing Factor Information, Zone OFFICE_1_B1424685,   1.2500    
 Heating Sizing Factor Information, Zone OFFICE_2_37CC8413,   1.2500    
 Heating Sizing Factor Information, Zone OFFICE_3_93B2C9FF,   1.2500    
 Heating Sizing Factor Information, Zone OFFICE_4_3DD7EBAB,   1.2500    
 Heating Sizing Factor Information, Zone OFFICE_5_682148B2,   1.2500    
 Heating Sizing Factor Information, Zone OFFICE_6_61DD9104,   1.2500    
 Heating Sizing Factor Information, Zone RESTROOMS,   1.2500    
 Heating Sizing Factor Information, Zone RESTROOM_1_404313B9,   1.2500    
 Heating Sizing Factor Information, Zone RESTROOM_2_A377B4B3,   1.2500    
 Heating Sizing Factor Information, Zone RESTROOM_3_C201E5F7,   1.2500    
 Heating Sizing Factor Information, Zone RESTROOM_4_33BABDA2,   1.2500    
 Heating Sizing Factor Information, Zone RESTROOM_5_911A78E2,   1.2500    
 Heating Sizing Factor Information, Zone RESTROOM_6_A019D741,   1.2500    
 Heating Sizing Factor Information, Zone ROOM_13_B04291D5,   1.2500    
 Heating Sizing Factor Information, Zone SE_HALL_PIANO,   1.2500    
 Heating Sizing Factor Information, Zone SMALL_WEST_CORRIDOR,   1.2500    
 Heating Sizing Factor Information, Zone SOUTH_HALL,   1.2500    
 Heating Sizing Factor Information, Zone STAIR_1_1681051F,   1.2500    
 Heating Sizing Factor Information, Zone STAIR_2_976E6FD5,   1.2500    
 Heating Sizing Factor Information, Zone STAIR_3_8F089848,   1.2500    
 Heating Sizing Factor Information, Zone UPSTAIRS_OFFICES,   1.2500    
 Heating Sizing Factor Information, Zone WEST_CORRIDOR,   1.2500    
 Heating Sizing Factor Information, Zone WEST_OFFICE_BLOCK,   1.2500    
! <Cooling Sizing Factor Information>, Sizing Factor ID, Value
 Cooling Sizing Factor Information, Global,   1.1500    
 Cooling Sizing Factor Information, Zone 100_AUDITORIUM,   1.1500    
 Cooling Sizing Factor Information, Zone 102_OFFICES,   1.1500    
 Cooling Sizing Factor Information, Zone 104_STORAGE,   1.1500    
 Cooling Sizing Factor Information, Zone 108,   1.1500    
 Cooling Sizing Factor Information, Zone 109,   1.1500    
 Cooling Sizing Factor Information, Zone 112_ARC,   1.1500    
 Cooling Sizing Factor Information, Zone 113_CAREER_SERVICES,   1.1500    
 Cooling Sizing Factor Information, Zone 114_OFFICES,   1.1500    
 Cooling Sizing Factor Information, Zone AUDITORIUMLOWER_0B49D193,   1.1500    
 Cooling Sizing Factor Information, Zone AUDITORIUM_LOBBY,   1.1500    
 Cooling Sizing Factor Information, Zone BOGDINING_E25F401A,   1.1500    
 Cooling Sizing Factor Information, Zone BOGPLAY_1_B863644B,   1.1500    
 Cooling Sizing Factor Information, Zone BOGPLAY_1_D1F076F9,   1.1500    
 Cooling Sizing Factor Information, Zone BOGPLAY_2_4B3AE9FE,   1.1500    
 Cooling Sizing Factor Information, Zone BOGPLAY_2_D145E14C,   1.1500    
 Cooling Sizing Factor Information, Zone CLASSROOM_1_90B605A9,   1.1500    
 Cooling Sizing Factor Information, Zone CLASSROOM_2_ECCCF8B8,   1.1500    
 Cooling Sizing Factor Information, Zone CORRIDOR_1_FA1FE4C1,   1.1500    
 Cooling Sizing Factor Information, Zone CORRIDOR_2_CFBEC8AA,   1.1500    
 Cooling Sizing Factor Information, Zone CORRIDOR_3_7621FA0C,   1.1500    
 Cooling Sizing Factor Information, Zone CORRIDOR_4_9B747DDD,   1.1500    
 Cooling Sizing Factor Information, Zone EAST_CORRIDOR,   1.1500    
 Cooling Sizing Factor Information, Zone EAST_SMALL_CORRIDOR,   1.1500    
 Cooling Sizing Factor Information, Zone KITCHEN_1_55B9A759,   1.1500    
 Cooling Sizing Factor Information, Zone KITCHEN_2_B940211D,   1.1500    
 Cooling Sizing Factor Information, Zone KITCHEN_3_3E9A0FB8,   1.1500    
 Cooling Sizing Factor Information, Zone MECH_1_40A96879,   1.1500    
 Cooling Sizing Factor Information, Zone MECH_2_C6ABCC9A,   1.1500    
 Cooling Sizing Factor Information, Zone MECH_3_6E799E0F,   1.1500    
 Cooling Sizing Factor Information, Zone MECH_4_99985F88,   1.1500    
 Cooling Sizing Factor Information, Zone NORTH_HALL,   1.1500    
[...]
 Component Sizing Information, Controller:OutdoorAir, 54 ZONE VAV OA CONTROLLER, Maximum Outdoor Air Flow Rate [m3/s], 57.39566
 Component Sizing Information, Controller:OutdoorAir, 54 ZONE VAV OA CONTROLLER, Minimum Outdoor Air Flow Rate [m3/s], 30.60927
 Component Sizing Information, Coil:Cooling:Water, 54 ZONE VAV CLG COIL, Design Size Design Inlet Air Temperature [C], 28.77623
 Component Sizing Information, Coil:Cooling:Water, 54 ZONE VAV CLG COIL, Design Size Design Inlet Water Temperature [C], 6.66667
 Component Sizing Information, Coil:Cooling:Water, 54 ZONE VAV CLG COIL, Design Size Design Outlet Air Temperature [C], 11.41376
 Component Sizing Information, Coil:Cooling:Water, 54 ZONE VAV CLG COIL, Design Size Design Inlet Air Humidity Ratio [kgWater/kgDryAir], 1.28461E-002
 Component Sizing Information, Coil:Cooling:Water, 54 ZONE VAV CLG COIL, Design Size Design Outlet Air Humidity Ratio [kgWater/kgDryAir], 8.50000E-003
 Component Sizing Information, Coil:Cooling:Water, 54 ZONE VAV CLG COIL, Design Size Design Coil Load [W], 1948746.86175
 Component Sizing Information, Coil:Cooling:Water, 54 ZONE VAV CLG COIL, Design Size Design Water Flow Rate [m3/s], 8.27400E-002
 Component Sizing Information, Coil:Cooling:Water, 54 ZONE VAV CLG COIL, Design Size Design Air Flow Rate [m3/s], 57.39566
! <Water Cooling Coil Capacity Information>,Component Type,Name,Nominal Total Capacity {W},Nominal Sensible Capacity {W},Nominal Latent Capacity {W},Nominal Sensible Heat Ratio, Nominal Coil UA Value {W/C}, Nominal Coil Surface Area {m2}
Water Cooling Coil Capacity Information,Coil:Cooling:Water,54 ZONE VAV CLG COIL,1690998.90,1102093.47,588905.43,0.65,179444.38,1820.02
 Component Sizing Information, Coil:Heating:Water, 54 ZONE VAV MAIN HTG COIL, Design Size Rated Capacity [W], 623234.70198
 Component Sizing Information, Coil:Heating:Water, 54 ZONE VAV MAIN HTG COIL, Design Size Maximum Water Flow Rate [m3/s], 1.36319E-002
 Component Sizing Information, Coil:Heating:Water, 54 ZONE VAV MAIN HTG COIL, Design Size U-Factor Times Area Value [W/K], 8110.44993
Water Heating Coil Capacity Information,Coil:Heating:Water,54 ZONE VAV MAIN HTG COIL,409875.74
 Component Sizing Information, Fan:VariableVolume, 54 ZONE VAV FAN, Design Size Maximum Flow Rate [m3/s], 57.39566
 Component Sizing Information, Controller:WaterCoil, 54 ZONE VAV CLG COIL CONTROLLER, Maximum Actuated Flow [m3/s], 8.27400E-002
 Component Sizing Information, Controller:WaterCoil, 54 ZONE VAV CLG COIL CONTROLLER, Controller Convergence Tolerance, 5.75526E-006
 Component Sizing Information, Controller:WaterCoil, 54 ZONE VAV MAIN HTG COIL CONTROLLER, Maximum Actuated Flow [m3/s], 1.36319E-002
Water Heater Information,WaterHeater:Mixed,IDEAL SERVICE HOT WATER HEATER,1.0000E-006,1000000.0,868585.857,0.9592
 Component Sizing Information, PlantLoop, CHILLED WATER LOOP, Maximum Loop Flow Rate [m3/s], 8.27400E-002
 Component Sizing Information, PlantLoop, CHILLED WATER LOOP, Plant Loop Volume [m3], 9.92880
 Component Sizing Information, Pump:VariableSpeed, CHILLED WATER LOOP PUMP, Design Flow Rate [m3/s], 8.27400E-002
 Component Sizing Information, Pump:VariableSpeed, CHILLED WATER LOOP PUMP, Design Power Consumption [W], 21138.07548
 Component Sizing Information, DistrictCooling, PURCHASED COOLING, Design Size Nominal Capacity [W], 1948746.86175
 Component Sizing Information, PlantLoop, HOT WATER LOOP, Maximum Loop Flow Rate [m3/s], 2.84545E-002
 Component Sizing Information, PlantLoop, HOT WATER LOOP, Plant Loop Volume [m3], 3.41454
 Component Sizing Information, Pump:VariableSpeed, HOT WATER LOOP PUMP, Design Flow Rate [m3/s], 2.84545E-002
 Component Sizing Information, Pump:VariableSpeed, HOT WATER LOOP PUMP, Design Power Consumption [W], 7269.44440
 Component Sizing Information, DistrictHeating, HOT WATER LOOP DISTRICT HEATING, Design Size Nominal Capacity [W], 1327088.31619
 Component Sizing Information, PlantLoop, SHW LOOP DEFAULT_DISTRICT_SHW, Maximum Loop Flow Rate [m3/s], 1.39586E-004
 Component Sizing Information, PlantLoop, SHW LOOP DEFAULT_DISTRICT_SHW, Plant Loop Volume [m3], 1.67504E-002
 Component Sizing Information, Pump:ConstantSpeed, SHW PUMP1, Design Flow Rate [m3/s], 1.39586E-004
 Component Sizing Information, Pump:ConstantSpeed, SHW PUMP1, Design Power Consumption [W], 5.94355
 Component Sizing Information, WaterHeater:Mixed, IDEAL SERVICE HOT WATER HEATER, Use Side Design Flow Rate [m3/s], 1.39586E-004
! <Environment>,Environment Name,Environment Type, Start Date, End Date, Start DayOfWeek, Duration {#days}, Source:Start DayOfWeek,  Use Daylight Saving, Use Holidays, Apply Weekend Holiday Rule,  Use Rain Values, Use Snow Values, Sky Temperature Model
! <Environment:Special Days>, Special Day Name, Special Day Type, Source, Start Date, Duration {#days}
! <Environment:Daylight Saving>, Daylight Saving Indicator, Source, Start Date, End Date
! <Environment:WarmupDays>, NumberofWarmupDays
Environment,RUN PERIOD 1,WeatherFileRunPeriod,01/01/2006,12/31/2006,Sunday,365,Use RunPeriod Specified Day,No,No,No,Yes,Yes,Clark and Allen
Environment:Daylight Saving,No,RunPeriod Object
Environment:WarmupDays,  3
! <Tabular Report>,Style,Unit Conversion
Tabular Report,HTML,None
! <Warmup Convergence Information>,Zone Name,Environment Type/Name,Average Warmup Temperature Difference {deltaC},Std Dev Warmup Temperature Difference {deltaC},Max Temperature Pass/Fail Convergence,Min Temperature Pass/Fail Convergence,Average Warmup Load Difference {W},Std Dev Warmup Load Difference {W},Heating Load Pass/Fail Convergence,Cooling Load Pass/Fail Convergence
 Warmup Convergence Information,100_AUDITORIUM,RunPeriod: RUN PERIOD 1,7.0572666997E-002,0.2141753808,Pass,Pass,0.1820302451,0.7749161311,Pass,Pass
 Warmup Convergence Information,102_OFFICES,RunPeriod: RUN PERIOD 1,6.9862495632E-002,0.1729089007,Pass,Pass,0.1915646484,0.4844188991,Pass,Pass
 Warmup Convergence Information,104_STORAGE,RunPeriod: RUN PERIOD 1,7.2589625163E-002,0.4629989786,Pass,Pass,6.6058298770E-002,0.3076297458,Pass,Pass
 Warmup Convergence Information,108,RunPeriod: RUN PERIOD 1,7.2644380626E-002,0.4542705772,Pass,Pass,6.1786476415E-002,0.2993272069,Pass,Pass
 Warmup Convergence Information,109,RunPeriod: RUN PERIOD 1,7.2025941913E-002,0.4448498260,Pass,Pass,6.9179052826E-002,0.3204380062,Pass,Pass
 Warmup Convergence Information,112_ARC,RunPeriod: RUN PERIOD 1,7.2568330355E-002,0.4534396313,Pass,Pass,6.0166207721E-002,0.3147031017,Pass,Pass
 Warmup Convergence Information,113_CAREER_SERVICES,RunPeriod: RUN PERIOD 1,7.2003274661E-002,0.4075277367,Pass,Pass,5.3884174263E-002,0.1940589017,Pass,Pass
 Warmup Convergence Information,114_OFFICES,RunPeriod: RUN PERIOD 1,5.1540817444E-002,0.1043734895,Pass,Pass,0.7874343244,8.6373868062,Pass,Pass
 Warmup Convergence Information,AUDITORIUMLOWER_0B49D193,RunPeriod: RUN PERIOD 1,7.1014711443E-002,0.2682843296,Pass,Pass,3.3602260187E-002,9.4336277555E-002,Pass,Pass
 Warmup Convergence Information,AUDITORIUM_LOBBY,RunPeriod: RUN PERIOD 1,6.9858194677E-002,0.1511679431,Pass,Pass,0.1026061897,0.4575621753,Pass,Pass
 Warmup Convergence Information,BOGDINING_E25F401A,RunPeriod: RUN PERIOD 1,9.2618751448E-002,0.3094018491,Pass,Pass,3.4397691153E-002,8.9199008230E-002,Pass,Pass
 Warmup Convergence Information,BOGPLAY_1_B863644B,RunPeriod: RUN PERIOD 1,2.1253504752E-003,1.5304399173E-003,Pass,Pass,2.6918406863E-003,4.6472814007E-003,Pass,Pass
 Warmup Convergence Information,BOGPLAY_1_D1F076F9,RunPeriod: RUN PERIOD 1,8.4662370897E-002,0.2925563730,Pass,Pass,6.6844006526E-002,0.3373860278,Pass,Pass
 Warmup Convergence Information,BOGPLAY_2_4B3AE9FE,RunPeriod: RUN PERIOD 1,2.3338457096E-003,1.6477812507E-003,Pass,Pass,2.6949109121E-003,4.6079888732E-003,Pass,Pass
 Warmup Convergence Information,BOGPLAY_2_D145E14C,RunPeriod: RUN PERIOD 1,8.0483280946E-002,0.2916461207,Pass,Pass,0.1052886609,0.7660450882,Pass,Pass
 Warmup Convergence Information,CLASSROOM_1_90B605A9,RunPeriod: RUN PERIOD 1,5.0266162590E-002,0.1450875931,Pass,Pass,1.3001311839E-002,4.5357715518E-002,Pass,Pass
 Warmup Convergence Information,CLASSROOM_2_ECCCF8B8,RunPeriod: RUN PERIOD 1,5.0779681411E-002,0.1590467020,Pass,Pass,1.0619661964E-002,4.8818802691E-002,Pass,Pass
 Warmup Convergence Information,CORRIDOR_1_FA1FE4C1,RunPeriod: RUN PERIOD 1,1.2697547551E-002,1.8818439340E-002,Pass,Pass,0.1057195442,0.5912056255,Pass,Pass
 Warmup Convergence Information,CORRIDOR_2_CFBEC8AA,RunPeriod: RUN PERIOD 1,8.8190562589E-003,8.4529617990E-003,Pass,Pass,3.1674010244E-003,3.9993866936E-003,Pass,Pass
 Warmup Convergence Information,CORRIDOR_3_7621FA0C,RunPeriod: RUN PERIOD 1,1.0470038990E-002,9.6484055691E-003,Pass,Pass,3.4436843934E-003,4.3057553301E-003,Pass,Pass
 Warmup Convergence Information,CORRIDOR_4_9B747DDD,RunPeriod: RUN PERIOD 1,2.5599515000E-002,2.2855980741E-002,Pass,Pass,4.2119056627E-003,4.2998787696E-003,Pass,Pass
 Warmup Convergence Information,EAST_CORRIDOR,RunPeriod: RUN PERIOD 1,7.1526906128E-002,0.3966118879,Pass,Pass,0.1069532955,0.6914520500,Pass,Pass
 Warmup Convergence Information,EAST_SMALL_CORRIDOR,RunPeriod: RUN PERIOD 1,7.0539919115E-002,0.2673537452,Pass,Pass,0.2244772218,1.3848898007,Pass,Pass
 Warmup Convergence Information,KITCHEN_1_55B9A759,RunPeriod: RUN PERIOD 1,9.2914600241E-002,0.1733248681,Pass,Pass,2.8146514189E-002,5.1309302793E-002,Pass,Pass
 Warmup Convergence Information,KITCHEN_2_B940211D,RunPeriod: RUN PERIOD 1,9.4430514380E-002,0.1748817982,Pass,Pass,2.7592310774E-002,4.9403584081E-002,Pass,Pass
 Warmup Convergence Information,KITCHEN_3_3E9A0FB8,RunPeriod: RUN PERIOD 1,9.6950569741E-002,0.1600316261,Pass,Pass,2.6724005571E-002,5.4129345382E-002,Pass,Pass
 Warmup Convergence Information,MECH_1_40A96879,RunPeriod: RUN PERIOD 1,5.5086558651E-003,5.2104805237E-003,Pass,Pass,2.6287172630E-003,3.9116658466E-003,Pass,Pass
 Warmup Convergence Information,MECH_2_C6ABCC9A,RunPeriod: RUN PERIOD 1,2.7260391695E-003,2.2465665350E-003,Pass,Pass,2.4879664969E-003,4.2350696219E-003,Pass,Pass
 Warmup Convergence Information,MECH_3_6E799E0F,RunPeriod: RUN PERIOD 1,5.4187337611E-003,4.8318119009E-003,Pass,Pass,2.8310854347E-003,4.1418049447E-003,Pass,Pass
 Warmup Convergence Information,MECH_4_99985F88,RunPeriod: RUN PERIOD 1,2.1254496773E-002,1.8541281301E-002,Pass,Pass,5.0232682081E-003,5.2861237539E-003,Pass,Pass
 Warmup Convergence Information,NORTH_HALL,RunPeriod: RUN PERIOD 1,7.2158659699E-002,0.3003437605,Pass,Pass,0.5241233580,3.3136212080,Pass,Pass
 Warmup Convergence Information,OFFICE_1_B1424685,RunPeriod: RUN PERIOD 1,3.6077185309E-002,5.2095892701E-002,Pass,Pass,6.6867393089E-002,0.3425656546,Pass,Pass
 Warmup Convergence Information,OFFICE_2_37CC8413,RunPeriod: RUN PERIOD 1,2.6234787372E-002,5.0600800068E-002,Pass,Pass,8.6609526718E-002,0.3049963434,Pass,Pass
 Warmup Convergence Information,OFFICE_3_93B2C9FF,RunPeriod: RUN PERIOD 1,1.8724144497E-002,5.6497895599E-002,Pass,Pass,2.2011822921E-002,0.1951793839,Pass,Pass
 Warmup Convergence Information,OFFICE_4_3DD7EBAB,RunPeriod: RUN PERIOD 1,6.1829270261E-002,0.1218457779,Pass,Pass,2.0948851200E-002,0.1087422711,Pass,Pass
 Warmup Convergence Information,OFFICE_5_682148B2,RunPeriod: RUN PERIOD 1,1.9084779691E-002,6.5299424385E-002,Pass,Pass,2.1966292079E-002,0.1956343124,Pass,Pass
 Warmup Convergence Information,OFFICE_6_61DD9104,RunPeriod: RUN PERIOD 1,2.3258518217E-002,4.4104832102E-002,Pass,Pass,2.6514459612E-002,7.6428899645E-002,Pass,Pass
 Warmup Convergence Information,RESTROOMS,RunPeriod: RUN PERIOD 1,7.0131382854E-002,0.2029565981,Pass,Pass,3.5904036727E-002,9.9041014234E-002,Pass,Pass
 Warmup Convergence Information,RESTROOM_1_404313B9,RunPeriod: RUN PERIOD 1,2.7794942329E-002,2.5826049308E-002,Pass,Pass,5.3716939158E-003,5.4428275937E-003,Pass,Pass
 Warmup Convergence Information,RESTROOM_2_A377B4B3,RunPeriod: RUN PERIOD 1,1.8414982228E-002,1.5317788495E-002,Pass,Pass,4.2800079902E-003,4.3439143950E-003,Pass,Pass
 Warmup Convergence Information,RESTROOM_3_C201E5F7,RunPeriod: RUN PERIOD 1,5.9297596942E-003,3.9767270946E-003,Pass,Pass,3.1459898083E-003,4.4107246305E-003,Pass,Pass
 Warmup Convergence Information,RESTROOM_4_33BABDA2,RunPeriod: RUN PERIOD 1,3.2890694761E-002,2.6886571361E-002,Pass,Pass,5.5603887264E-003,5.4045501128E-003,Pass,Pass
 Warmup Convergence Information,RESTROOM_5_911A78E2,RunPeriod: RUN PERIOD 1,1.6545954898E-003,1.6992677064E-003,Pass,Pass,2.7623869301E-003,5.0503541691E-003,Pass,Pass
 Warmup Convergence Information,RESTROOM_6_A019D741,RunPeriod: RUN PERIOD 1,5.6305670618E-003,4.9990861922E-003,Pass,Pass,3.3287205794E-003,4.8697111086E-003,Pass,Pass
 Warmup Convergence Information,ROOM_13_B04291D5,RunPeriod: RUN PERIOD 1,7.0222148553E-002,0.2070079338,Pass,Pass,9.4418574632E-002,0.5132213775,Pass,Pass
 Warmup Convergence Information,SE_HALL_PIANO,RunPeriod: RUN PERIOD 1,7.2284964681E-002,0.4383257784,Pass,Pass,5.1298969138E-002,0.1584448066,Pass,Pass
 Warmup Convergence Information,SMALL_WEST_CORRIDOR,RunPeriod: RUN PERIOD 1,7.0342681045E-002,0.2664916256,Pass,Pass,0.1844754703,0.9827126566,Pass,Pass
 Warmup Convergence Information,SOUTH_HALL,RunPeriod: RUN PERIOD 1,7.1102984955E-002,0.3635194236,Pass,Pass,0.2831002675,0.8274785887,Pass,Pass
 Warmup Convergence Information,STAIR_1_1681051F,RunPeriod: RUN PERIOD 1,1.9923976176E-002,1.8317408292E-002,Pass,Pass,4.5122531751E-003,4.5908943092E-003,Pass,Pass
 Warmup Convergence Information,STAIR_2_976E6FD5,RunPeriod: RUN PERIOD 1,1.1207642695E-002,8.1331089551E-003,Pass,Pass,3.6378750942E-003,4.2156055274E-003,Pass,Pass
 Warmup Convergence Information,STAIR_3_8F089848,RunPeriod: RUN PERIOD 1,2.0284587752E-003,1.4609598929E-003,Pass,Pass,2.6366549488E-003,4.5976979339E-003,Pass,Pass
 Warmup Convergence Information,UPSTAIRS_OFFICES,RunPeriod: RUN PERIOD 1,6.9955969774E-002,0.1878411711,Pass,Pass,0.2007952055,1.2074182326,Pass,Pass
 Warmup Convergence Information,WEST_CORRIDOR,RunPeriod: RUN PERIOD 1,7.2888617038E-002,0.4769735356,Pass,Pass,6.7092230355E-002,0.3803480286,Pass,Pass
 Warmup Convergence Information,WEST_OFFICE_BLOCK,RunPeriod: RUN PERIOD 1,7.0338193212E-002,0.2373260064,Pass,Pass,0.2525652640,1.8205158902,Pass,Pass
! <Program Control Information:Threads/Parallel Sims>, Threading Supported,Maximum Number of Threads, Env Set Threads (OMP_NUM_THREADS), EP Env Set Threads (EP_OMP_NUM_THREADS), IDF Set Threads, Number of Threads Used (Interior Radiant Exchange), Number Nominal Surfaces, Number Parallel Sims
Program Control:Threads/Parallel Sims, No,1, N/A, N/A, N/A, N/A, N/A, N/A
End of Data
