! Program Version,EnergyPlus, Version 22.1.0-ed759b17ee, YMD=2022.11.27 15:48,
! Output:Meter Objects (applicable to this run)
Output:Meter,Electricity:Facility,hourly; !- [J]
Output:Meter:Cumulative,Electricity:Facility,hourly; !- [J]
Output:Meter,Electricity:Building,hourly; !- [J]
Output:Meter:Cumulative,Electricity:Building,hourly; !- [J]
Output:Meter,Electricity:Zone:NORTH_HALL,hourly; !- [J]
Output:Meter:Cumulative,Electricity:Zone:NORTH_HALL,hourly; !- [J]
Output:Meter,Electricity:SpaceType:GENERAL,hourly; !- [J]
Output:Meter:Cumulative,Electricity:SpaceType:GENERAL,hourly; !- [J]
Output:Meter,InteriorLights:Electricity,hourly; !- [J]
Output:Meter:Cumulative,InteriorLights:Electricity,hourly; !- [J]
Output:Meter,InteriorLights:Electricity:Zone:NORTH_HALL,hourly; !- [J]
Output:Meter:Cumulative,InteriorLights:Electricity:Zone:NORTH_HALL,hourly; !- [J]
Output:Meter,InteriorLights:Electricity:SpaceType:GENERAL,hourly; !- [J]
Output:Meter:Cumulative,InteriorLights:Electricity:SpaceType:GENERAL,hourly; !- [J]
Output:Meter,General:InteriorLights:Electricity,hourly; !- [J]
Output:Meter:Cumulative,General:InteriorLights:Electricity,hourly; !- [J]
Output:Meter,General:InteriorLights:Electricity:Zone:NORTH_HALL,hourly; !- [J]
Output:Meter:Cumulative,General:InteriorLights:Electricity:Zone:NORTH_HALL,hourly; !- [J]
Output:Meter,General:InteriorLights:Electricity:SpaceType:GENERAL,hourly; !- [J]
Output:Meter:Cumulative,General:InteriorLights:Electricity:SpaceType:GENERAL,hourly; !- [J]
Output:Meter,Electricity:Zone:SOUTH_HALL,hourly; !- [J]
Output:Meter:Cumulative,Electricity:Zone:SOUTH_HALL,hourly; !- [J]
Output:Meter,InteriorLights:Electricity:Zone:SOUTH_HALL,hourly; !- [J]
Output:Meter:Cumulative,InteriorLights:Electricity:Zone:SOUTH_HALL,hourly; !- [J]
Output:Meter,General:InteriorLights:Electricity:Zone:SOUTH_HALL,hourly; !- [J]
Output:Meter:Cumulative,General:InteriorLights:Electricity:Zone:SOUTH_HALL,hourly; !- [J]
Output:Meter,Electricity:Zone:BOGPLAY_1_D1F076F9,hourly; !- [J]
Output:Meter:Cumulative,Electricity:Zone:BOGPLAY_1_D1F076F9,hourly; !- [J]
Output:Meter,InteriorLights:Electricity:Zone:BOGPLAY_1_D1F076F9,hourly; !- [J]
Output:Meter:Cumulative,InteriorLights:Electricity:Zone:BOGPLAY_1_D1F076F9,hourly; !- [J]
Output:Meter,General:InteriorLights:Electricity:Zone:BOGPLAY_1_D1F076F9,hourly; !- [J]
Output:Meter:Cumulative,General:InteriorLights:Electricity:Zone:BOGPLAY_1_D1F076F9,hourly; !- [J]
Output:Meter,Electricity:Zone:BOGPLAY_2_D145E14C,hourly; !- [J]
Output:Meter:Cumulative,Electricity:Zone:BOGPLAY_2_D145E14C,hourly; !- [J]
Output:Meter,InteriorLights:Electricity:Zone:BOGPLAY_2_D145E14C,hourly; !- [J]
Output:Meter:Cumulative,InteriorLights:Electricity:Zone:BOGPLAY_2_D145E14C,hourly; !- [J]
Output:Meter,General:InteriorLights:Electricity:Zone:BOGPLAY_2_D145E14C,hourly; !- [J]
Output:Meter:Cumulative,General:InteriorLights:Electricity:Zone:BOGPLAY_2_D145E14C,hourly; !- [J]
Output:Meter,Electricity:Zone:STAIR_1_1681051F,hourly; !- [J]
Output:Meter:Cumulative,Electricity:Zone:STAIR_1_1681051F,hourly; !- [J]
Output:Meter,InteriorLights:Electricity:Zone:STAIR_1_1681051F,hourly; !- [J]
Output:Meter:Cumulative,InteriorLights:Electricity:Zone:STAIR_1_1681051F,hourly; !- [J]
Output:Meter,General:InteriorLights:Electricity:Zone:STAIR_1_1681051F,hourly; !- [J]
Output:Meter:Cumulative,General:InteriorLights:Electricity:Zone:STAIR_1_1681051F,hourly; !- [J]
Output:Meter,Electricity:Zone:STAIR_2_976E6FD5,hourly; !- [J]
Output:Meter:Cumulative,Electricity:Zone:STAIR_2_976E6FD5,hourly; !- [J]
Output:Meter,InteriorLights:Electricity:Zone:STAIR_2_976E6FD5,hourly; !- [J]
Output:Meter:Cumulative,InteriorLights:Electricity:Zone:STAIR_2_976E6FD5,hourly; !- [J]
Output:Meter,General:InteriorLights:Electricity:Zone:STAIR_2_976E6FD5,hourly; !- [J]
Output:Meter:Cumulative,General:InteriorLights:Electricity:Zone:STAIR_2_976E6FD5,hourly; !- [J]
Output:Meter,Electricity:Zone:STAIR_3_8F089848,hourly; !- [J]
Output:Meter:Cumulative,Electricity:Zone:STAIR_3_8F089848,hourly; !- [J]
Output:Meter,InteriorLights:Electricity:Zone:STAIR_3_8F089848,hourly; !- [J]
Output:Meter:Cumulative,InteriorLights:Electricity:Zone:STAIR_3_8F089848,hourly; !- [J]
Output:Meter,General:InteriorLights:Electricity:Zone:STAIR_3_8F089848,hourly; !- [J]
Output:Meter:Cumulative,General:InteriorLights:Electricity:Zone:STAIR_3_8F089848,hourly; !- [J]
Output:Meter,Electricity:Zone:BOGPLAY_1_B863644B,hourly; !- [J]
Output:Meter:Cumulative,Electricity:Zone:BOGPLAY_1_B863644B,hourly; !- [J]
Output:Meter,InteriorLights:Electricity:Zone:BOGPLAY_1_B863644B,hourly; !- [J]
Output:Meter:Cumulative,InteriorLights:Electricity:Zone:BOGPLAY_1_B863644B,hourly; !- [J]
Output:Meter,General:InteriorLights:Electricity:Zone:BOGPLAY_1_B863644B,hourly; !- [J]
Output:Meter:Cumulative,General:InteriorLights:Electricity:Zone:BOGPLAY_1_B863644B,hourly; !- [J]
Output:Meter,Electricity:Zone:BOGPLAY_2_4B3AE9FE,hourly; !- [J]
Output:Meter:Cumulative,Electricity:Zone:BOGPLAY_2_4B3AE9FE,hourly; !- [J]
Output:Meter,InteriorLights:Electricity:Zone:BOGPLAY_2_4B3AE9FE,hourly; !- [J]
Output:Meter:Cumulative,InteriorLights:Electricity:Zone:BOGPLAY_2_4B3AE9FE,hourly; !- [J]
Output:Meter,General:InteriorLights:Electricity:Zone:BOGPLAY_2_4B3AE9FE,hourly; !- [J]
Output:Meter:Cumulative,General:InteriorLights:Electricity:Zone:BOGPLAY_2_4B3AE9FE,hourly; !- [J]
Output:Meter,Electricity:Zone:BOGDINING_E25F401A,hourly; !- [J]
Output:Meter:Cumulative,Electricity:Zone:BOGDINING_E25F401A,hourly; !- [J]
Output:Meter,InteriorLights:Electricity:Zone:BOGDINING_E25F401A,hourly; !- [J]
Output:Meter:Cumulative,InteriorLights:Electricity:Zone:BOGDINING_E25F401A,hourly; !- [J]
Output:Meter,General:InteriorLights:Electricity:Zone:BOGDINING_E25F401A,hourly; !- [J]
Output:Meter:Cumulative,General:InteriorLights:Electricity:Zone:BOGDINING_E25F401A,hourly; !- [J]
Output:Meter,Electricity:Zone:KITCHEN_1_55B9A759,hourly; !- [J]
Output:Meter:Cumulative,Electricity:Zone:KITCHEN_1_55B9A759,hourly; !- [J]
Output:Meter,InteriorLights:Electricity:Zone:KITCHEN_1_55B9A759,hourly; !- [J]
Output:Meter:Cumulative,InteriorLights:Electricity:Zone:KITCHEN_1_55B9A759,hourly; !- [J]
Output:Meter,General:InteriorLights:Electricity:Zone:KITCHEN_1_55B9A759,hourly; !- [J]
Output:Meter:Cumulative,General:InteriorLights:Electricity:Zone:KITCHEN_1_55B9A759,hourly; !- [J]
Output:Meter,Electricity:Zone:KITCHEN_2_B940211D,hourly; !- [J]
Output:Meter:Cumulative,Electricity:Zone:KITCHEN_2_B940211D,hourly; !- [J]
Output:Meter,InteriorLights:Electricity:Zone:KITCHEN_2_B940211D,hourly; !- [J]
Output:Meter:Cumulative,InteriorLights:Electricity:Zone:KITCHEN_2_B940211D,hourly; !- [J]
Output:Meter,General:InteriorLights:Electricity:Zone:KITCHEN_2_B940211D,hourly; !- [J]
Output:Meter:Cumulative,General:InteriorLights:Electricity:Zone:KITCHEN_2_B940211D,hourly; !- [J]
Output:Meter,Electricity:Zone:KITCHEN_3_3E9A0FB8,hourly; !- [J]
Output:Meter:Cumulative,Electricity:Zone:KITCHEN_3_3E9A0FB8,hourly; !- [J]
Output:Meter,InteriorLights:Electricity:Zone:KITCHEN_3_3E9A0FB8,hourly; !- [J]
Output:Meter:Cumulative,InteriorLights:Electricity:Zone:KITCHEN_3_3E9A0FB8,hourly; !- [J]
Output:Meter,General:InteriorLights:Electricity:Zone:KITCHEN_3_3E9A0FB8,hourly; !- [J]
Output:Meter:Cumulative,General:InteriorLights:Electricity:Zone:KITCHEN_3_3E9A0FB8,hourly; !- [J]
Output:Meter,Electricity:Zone:AUDITORIUMLOWER_0B49D193,hourly; !- [J]
Output:Meter:Cumulative,Electricity:Zone:AUDITORIUMLOWER_0B49D193,hourly; !- [J]
Output:Meter,InteriorLights:Electricity:Zone:AUDITORIUMLOWER_0B49D193,hourly; !- [J]
Output:Meter:Cumulative,InteriorLights:Electricity:Zone:AUDITORIUMLOWER_0B49D193,hourly; !- [J]
Output:Meter,General:InteriorLights:Electricity:Zone:AUDITORIUMLOWER_0B49D193,hourly; !- [J]
Output:Meter:Cumulative,General:InteriorLights:Electricity:Zone:AUDITORIUMLOWER_0B49D193,hourly; !- [J]
Output:Meter,Electricity:Zone:CLASSROOM_1_90B605A9,hourly; !- [J]
Output:Meter:Cumulative,Electricity:Zone:CLASSROOM_1_90B605A9,hourly; !- [J]
Output:Meter,InteriorLights:Electricity:Zone:CLASSROOM_1_90B605A9,hourly; !- [J]
Output:Meter:Cumulative,InteriorLights:Electricity:Zone:CLASSROOM_1_90B605A9,hourly; !- [J]
Output:Meter,General:InteriorLights:Electricity:Zone:CLASSROOM_1_90B605A9,hourly; !- [J]
Output:Meter:Cumulative,General:InteriorLights:Electricity:Zone:CLASSROOM_1_90B605A9,hourly; !- [J]
Output:Meter,Electricity:Zone:CLASSROOM_2_ECCCF8B8,hourly; !- [J]
Output:Meter:Cumulative,Electricity:Zone:CLASSROOM_2_ECCCF8B8,hourly; !- [J]
Output:Meter,InteriorLights:Electricity:Zone:CLASSROOM_2_ECCCF8B8,hourly; !- [J]
Output:Meter:Cumulative,InteriorLights:Electricity:Zone:CLASSROOM_2_ECCCF8B8,hourly; !- [J]
Output:Meter,General:InteriorLights:Electricity:Zone:CLASSROOM_2_ECCCF8B8,hourly; !- [J]
Output:Meter:Cumulative,General:InteriorLights:Electricity:Zone:CLASSROOM_2_ECCCF8B8,hourly; !- [J]
Output:Meter,Electricity:Zone:ROOM_13_B04291D5,hourly; !- [J]
Output:Meter:Cumulative,Electricity:Zone:ROOM_13_B04291D5,hourly; !- [J]
Output:Meter,InteriorLights:Electricity:Zone:ROOM_13_B04291D5,hourly; !- [J]
Output:Meter:Cumulative,InteriorLights:Electricity:Zone:ROOM_13_B04291D5,hourly; !- [J]
Output:Meter,General:InteriorLights:Electricity:Zone:ROOM_13_B04291D5,hourly; !- [J]
Output:Meter:Cumulative,General:InteriorLights:Electricity:Zone:ROOM_13_B04291D5,hourly; !- [J]
Output:Meter,Electricity:Zone:CORRIDOR_1_FA1FE4C1,hourly; !- [J]
Output:Meter:Cumulative,Electricity:Zone:CORRIDOR_1_FA1FE4C1,hourly; !- [J]
Output:Meter,InteriorLights:Electricity:Zone:CORRIDOR_1_FA1FE4C1,hourly; !- [J]
Output:Meter:Cumulative,InteriorLights:Electricity:Zone:CORRIDOR_1_FA1FE4C1,hourly; !- [J]
Output:Meter,General:InteriorLights:Electricity:Zone:CORRIDOR_1_FA1FE4C1,hourly; !- [J]
Output:Meter:Cumulative,General:InteriorLights:Electricity:Zone:CORRIDOR_1_FA1FE4C1,hourly; !- [J]
Output:Meter,Electricity:Zone:CORRIDOR_2_CFBEC8AA,hourly; !- [J]
Output:Meter:Cumulative,Electricity:Zone:CORRIDOR_2_CFBEC8AA,hourly; !- [J]
Output:Meter,InteriorLights:Electricity:Zone:CORRIDOR_2_CFBEC8AA,hourly; !- [J]
Output:Meter:Cumulative,InteriorLights:Electricity:Zone:CORRIDOR_2_CFBEC8AA,hourly; !- [J]
Output:Meter,General:InteriorLights:Electricity:Zone:CORRIDOR_2_CFBEC8AA,hourly; !- [J]
Output:Meter:Cumulative,General:InteriorLights:Electricity:Zone:CORRIDOR_2_CFBEC8AA,hourly; !- [J]
Output:Meter,Electricity:Zone:CORRIDOR_3_7621FA0C,hourly; !- [J]
Output:Meter:Cumulative,Electricity:Zone:CORRIDOR_3_7621FA0C,hourly; !- [J]
Output:Meter,InteriorLights:Electricity:Zone:CORRIDOR_3_7621FA0C,hourly; !- [J]
Output:Meter:Cumulative,InteriorLights:Electricity:Zone:CORRIDOR_3_7621FA0C,hourly; !- [J]
Output:Meter,General:InteriorLights:Electricity:Zone:CORRIDOR_3_7621FA0C,hourly; !- [J]
Output:Meter:Cumulative,General:InteriorLights:Electricity:Zone:CORRIDOR_3_7621FA0C,hourly; !- [J]
Output:Meter,Electricity:Zone:CORRIDOR_4_9B747DDD,hourly; !- [J]
Output:Meter:Cumulative,Electricity:Zone:CORRIDOR_4_9B747DDD,hourly; !- [J]
Output:Meter,InteriorLights:Electricity:Zone:CORRIDOR_4_9B747DDD,hourly; !- [J]
Output:Meter:Cumulative,InteriorLights:Electricity:Zone:CORRIDOR_4_9B747DDD,hourly; !- [J]
Output:Meter,General:InteriorLights:Electricity:Zone:CORRIDOR_4_9B747DDD,hourly; !- [J]
Output:Meter:Cumulative,General:InteriorLights:Electricity:Zone:CORRIDOR_4_9B747DDD,hourly; !- [J]
Output:Meter,Electricity:Zone:MECH_1_40A96879,hourly; !- [J]
Output:Meter:Cumulative,Electricity:Zone:MECH_1_40A96879,hourly; !- [J]
Output:Meter,InteriorLights:Electricity:Zone:MECH_1_40A96879,hourly; !- [J]
Output:Meter:Cumulative,InteriorLights:Electricity:Zone:MECH_1_40A96879,hourly; !- [J]
Output:Meter,General:InteriorLights:Electricity:Zone:MECH_1_40A96879,hourly; !- [J]
Output:Meter:Cumulative,General:InteriorLights:Electricity:Zone:MECH_1_40A96879,hourly; !- [J]
Output:Meter,Electricity:Zone:MECH_2_C6ABCC9A,hourly; !- [J]
Output:Meter:Cumulative,Electricity:Zone:MECH_2_C6ABCC9A,hourly; !- [J]
Output:Meter,InteriorLights:Electricity:Zone:MECH_2_C6ABCC9A,hourly; !- [J]
Output:Meter:Cumulative,InteriorLights:Electricity:Zone:MECH_2_C6ABCC9A,hourly; !- [J]
Output:Meter,General:InteriorLights:Electricity:Zone:MECH_2_C6ABCC9A,hourly; !- [J]
Output:Meter:Cumulative,General:InteriorLights:Electricity:Zone:MECH_2_C6ABCC9A,hourly; !- [J]
Output:Meter,Electricity:Zone:MECH_3_6E799E0F,hourly; !- [J]
Output:Meter:Cumulative,Electricity:Zone:MECH_3_6E799E0F,hourly; !- [J]
Output:Meter,InteriorLights:Electricity:Zone:MECH_3_6E799E0F,hourly; !- [J]
Output:Meter:Cumulative,InteriorLights:Electricity:Zone:MECH_3_6E799E0F,hourly; !- [J]
Output:Meter,General:InteriorLights:Electricity:Zone:MECH_3_6E799E0F,hourly; !- [J]
Output:Meter:Cumulative,General:InteriorLights:Electricity:Zone:MECH_3_6E799E0F,hourly; !- [J]
Output:Meter,Electricity:Zone:MECH_4_99985F88,hourly; !- [J]
Output:Meter:Cumulative,Electricity:Zone:MECH_4_99985F88,hourly; !- [J]
Output:Meter,InteriorLights:Electricity:Zone:MECH_4_99985F88,hourly; !- [J]
Output:Meter:Cumulative,InteriorLights:Electricity:Zone:MECH_4_99985F88,hourly; !- [J]
Output:Meter,General:InteriorLights:Electricity:Zone:MECH_4_99985F88,hourly; !- [J]
Output:Meter:Cumulative,General:InteriorLights:Electricity:Zone:MECH_4_99985F88,hourly; !- [J]
Output:Meter,Electricity:Zone:OFFICE_1_B1424685,hourly; !- [J]
Output:Meter:Cumulative,Electricity:Zone:OFFICE_1_B1424685,hourly; !- [J]
Output:Meter,InteriorLights:Electricity:Zone:OFFICE_1_B1424685,hourly; !- [J]
Output:Meter:Cumulative,InteriorLights:Electricity:Zone:OFFICE_1_B1424685,hourly; !- [J]
Output:Meter,General:InteriorLights:Electricity:Zone:OFFICE_1_B1424685,hourly; !- [J]
Output:Meter:Cumulative,General:InteriorLights:Electricity:Zone:OFFICE_1_B1424685,hourly; !- [J]
Output:Meter,Electricity:Zone:OFFICE_2_37CC8413,hourly; !- [J]
Output:Meter:Cumulative,Electricity:Zone:OFFICE_2_37CC8413,hourly; !- [J]
Output:Meter,InteriorLights:Electricity:Zone:OFFICE_2_37CC8413,hourly; !- [J]
Output:Meter:Cumulative,InteriorLights:Electricity:Zone:OFFICE_2_37CC8413,hourly; !- [J]
Output:Meter,General:InteriorLights:Electricity:Zone:OFFICE_2_37CC8413,hourly; !- [J]
Output:Meter:Cumulative,General:InteriorLights:Electricity:Zone:OFFICE_2_37CC8413,hourly; !- [J]
Output:Meter,Electricity:Zone:OFFICE_3_93B2C9FF,hourly; !- [J]
Output:Meter:Cumulative,Electricity:Zone:OFFICE_3_93B2C9FF,hourly; !- [J]
Output:Meter,InteriorLights:Electricity:Zone:OFFICE_3_93B2C9FF,hourly; !- [J]
Output:Meter:Cumulative,InteriorLights:Electricity:Zone:OFFICE_3_93B2C9FF,hourly; !- [J]
Output:Meter,General:InteriorLights:Electricity:Zone:OFFICE_3_93B2C9FF,hourly; !- [J]
Output:Meter:Cumulative,General:InteriorLights:Electricity:Zone:OFFICE_3_93B2C9FF,hourly; !- [J]
Output:Meter,Electricity:Zone:OFFICE_4_3DD7EBAB,hourly; !- [J]
Output:Meter:Cumulative,Electricity:Zone:OFFICE_4_3DD7EBAB,hourly; !- [J]
Output:Meter,InteriorLights:Electricity:Zone:OFFICE_4_3DD7EBAB,hourly; !- [J]
Output:Meter:Cumulative,InteriorLights:Electricity:Zone:OFFICE_4_3DD7EBAB,hourly; !- [J]
Output:Meter,General:InteriorLights:Electricity:Zone:OFFICE_4_3DD7EBAB,hourly; !- [J]
Output:Meter:Cumulative,General:InteriorLights:Electricity:Zone:OFFICE_4_3DD7EBAB,hourly; !- [J]
Output:Meter,Electricity:Zone:OFFICE_5_682148B2,hourly; !- [J]
Output:Meter:Cumulative,Electricity:Zone:OFFICE_5_682148B2,hourly; !- [J]
Output:Meter,InteriorLights:Electricity:Zone:OFFICE_5_682148B2,hourly; !- [J]
Output:Meter:Cumulative,InteriorLights:Electricity:Zone:OFFICE_5_682148B2,hourly; !- [J]
Output:Meter,General:InteriorLights:Electricity:Zone:OFFICE_5_682148B2,hourly; !- [J]
Output:Meter:Cumulative,General:InteriorLights:Electricity:Zone:OFFICE_5_682148B2,hourly; !- [J]
Output:Meter,Electricity:Zone:OFFICE_6_61DD9104,hourly; !- [J]
Output:Meter:Cumulative,Electricity:Zone:OFFICE_6_61DD9104,hourly; !- [J]
Output:Meter,InteriorLights:Electricity:Zone:OFFICE_6_61DD9104,hourly; !- [J]
Output:Meter:Cumulative,InteriorLights:Electricity:Zone:OFFICE_6_61DD9104,hourly; !- [J]
Output:Meter,General:InteriorLights:Electricity:Zone:OFFICE_6_61DD9104,hourly; !- [J]
Output:Meter:Cumulative,General:InteriorLights:Electricity:Zone:OFFICE_6_61DD9104,hourly; !- [J]
Output:Meter,Electricity:Zone:RESTROOM_1_404313B9,hourly; !- [J]
Output:Meter:Cumulative,Electricity:Zone:RESTROOM_1_404313B9,hourly; !- [J]
Output:Meter,InteriorLights:Electricity:Zone:RESTROOM_1_404313B9,hourly; !- [J]
Output:Meter:Cumulative,InteriorLights:Electricity:Zone:RESTROOM_1_404313B9,hourly; !- [J]
Output:Meter,General:InteriorLights:Electricity:Zone:RESTROOM_1_404313B9,hourly; !- [J]
Output:Meter:Cumulative,General:InteriorLights:Electricity:Zone:RESTROOM_1_404313B9,hourly; !- [J]
Output:Meter,Electricity:Zone:RESTROOM_2_A377B4B3,hourly; !- [J]
Output:Meter:Cumulative,Electricity:Zone:RESTROOM_2_A377B4B3,hourly; !- [J]
Output:Meter,InteriorLights:Electricity:Zone:RESTROOM_2_A377B4B3,hourly; !- [J]
Output:Meter:Cumulative,InteriorLights:Electricity:Zone:RESTROOM_2_A377B4B3,hourly; !- [J]
Output:Meter,General:InteriorLights:Electricity:Zone:RESTROOM_2_A377B4B3,hourly; !- [J]
Output:Meter:Cumulative,General:InteriorLights:Electricity:Zone:RESTROOM_2_A377B4B3,hourly; !- [J]
Output:Meter,Electricity:Zone:RESTROOM_3_C201E5F7,hourly; !- [J]
Output:Meter:Cumulative,Electricity:Zone:RESTROOM_3_C201E5F7,hourly; !- [J]
Output:Meter,InteriorLights:Electricity:Zone:RESTROOM_3_C201E5F7,hourly; !- [J]
Output:Meter:Cumulative,InteriorLights:Electricity:Zone:RESTROOM_3_C201E5F7,hourly; !- [J]
Output:Meter,General:InteriorLights:Electricity:Zone:RESTROOM_3_C201E5F7,hourly; !- [J]
Output:Meter:Cumulative,General:InteriorLights:Electricity:Zone:RESTROOM_3_C201E5F7,hourly; !- [J]
Output:Meter,Electricity:Zone:RESTROOM_4_33BABDA2,hourly; !- [J]
Output:Meter:Cumulative,Electricity:Zone:RESTROOM_4_33BABDA2,hourly; !- [J]
Output:Meter,InteriorLights:Electricity:Zone:RESTROOM_4_33BABDA2,hourly; !- [J]
Output:Meter:Cumulative,InteriorLights:Electricity:Zone:RESTROOM_4_33BABDA2,hourly; !- [J]
Output:Meter,General:InteriorLights:Electricity:Zone:RESTROOM_4_33BABDA2,hourly; !- [J]
Output:Meter:Cumulative,General:InteriorLights:Electricity:Zone:RESTROOM_4_33BABDA2,hourly; !- [J]
Output:Meter,Electricity:Zone:RESTROOM_5_911A78E2,hourly; !- [J]
Output:Meter:Cumulative,Electricity:Zone:RESTROOM_5_911A78E2,hourly; !- [J]
Output:Meter,InteriorLights:Electricity:Zone:RESTROOM_5_911A78E2,hourly; !- [J]
Output:Meter:Cumulative,InteriorLights:Electricity:Zone:RESTROOM_5_911A78E2,hourly; !- [J]
Output:Meter,General:InteriorLights:Electricity:Zone:RESTROOM_5_911A78E2,hourly; !- [J]
Output:Meter:Cumulative,General:InteriorLights:Electricity:Zone:RESTROOM_5_911A78E2,hourly; !- [J]
Output:Meter,Electricity:Zone:RESTROOM_6_A019D741,hourly; !- [J]
Output:Meter:Cumulative,Electricity:Zone:RESTROOM_6_A019D741,hourly; !- [J]
Output:Meter,InteriorLights:Electricity:Zone:RESTROOM_6_A019D741,hourly; !- [J]
Output:Meter:Cumulative,InteriorLights:Electricity:Zone:RESTROOM_6_A019D741,hourly; !- [J]
Output:Meter,General:InteriorLights:Electricity:Zone:RESTROOM_6_A019D741,hourly; !- [J]
Output:Meter:Cumulative,General:InteriorLights:Electricity:Zone:RESTROOM_6_A019D741,hourly; !- [J]
Output:Meter,Electricity:Zone:100_AUDITORIUM,hourly; !- [J]
Output:Meter:Cumulative,Electricity:Zone:100_AUDITORIUM,hourly; !- [J]
Output:Meter,InteriorLights:Electricity:Zone:100_AUDITORIUM,hourly; !- [J]
Output:Meter:Cumulative,InteriorLights:Electricity:Zone:100_AUDITORIUM,hourly; !- [J]
Output:Meter,General:InteriorLights:Electricity:Zone:100_AUDITORIUM,hourly; !- [J]
Output:Meter:Cumulative,General:InteriorLights:Electricity:Zone:100_AUDITORIUM,hourly; !- [J]
Output:Meter,Electricity:Zone:112_ARC,hourly; !- [J]
Output:Meter:Cumulative,Electricity:Zone:112_ARC,hourly; !- [J]
Output:Meter,InteriorLights:Electricity:Zone:112_ARC,hourly; !- [J]
Output:Meter:Cumulative,InteriorLights:Electricity:Zone:112_ARC,hourly; !- [J]
Output:Meter,General:InteriorLights:Electricity:Zone:112_ARC,hourly; !- [J]
Output:Meter:Cumulative,General:InteriorLights:Electricity:Zone:112_ARC,hourly; !- [J]
Output:Meter,Electricity:Zone:EAST_CORRIDOR,hourly; !- [J]
Output:Meter:Cumulative,Electricity:Zone:EAST_CORRIDOR,hourly; !- [J]
Output:Meter,InteriorLights:Electricity:Zone:EAST_CORRIDOR,hourly; !- [J]
Output:Meter:Cumulative,InteriorLights:Electricity:Zone:EAST_CORRIDOR,hourly; !- [J]
Output:Meter,General:InteriorLights:Electricity:Zone:EAST_CORRIDOR,hourly; !- [J]
Output:Meter:Cumulative,General:InteriorLights:Electricity:Zone:EAST_CORRIDOR,hourly; !- [J]
Output:Meter,Electricity:Zone:EAST_SMALL_CORRIDOR,hourly; !- [J]
Output:Meter:Cumulative,Electricity:Zone:EAST_SMALL_CORRIDOR,hourly; !- [J]
Output:Meter,InteriorLights:Electricity:Zone:EAST_SMALL_CORRIDOR,hourly; !- [J]
Output:Meter:Cumulative,InteriorLights:Electricity:Zone:EAST_SMALL_CORRIDOR,hourly; !- [J]
Output:Meter,General:InteriorLights:Electricity:Zone:EAST_SMALL_CORRIDOR,hourly; !- [J]
Output:Meter:Cumulative,General:InteriorLights:Electricity:Zone:EAST_SMALL_CORRIDOR,hourly; !- [J]
Output:Meter,Electricity:Zone:SMALL_WEST_CORRIDOR,hourly; !- [J]
Output:Meter:Cumulative,Electricity:Zone:SMALL_WEST_CORRIDOR,hourly; !- [J]
Output:Meter,InteriorLights:Electricity:Zone:SMALL_WEST_CORRIDOR,hourly; !- [J]
Output:Meter:Cumulative,InteriorLights:Electricity:Zone:SMALL_WEST_CORRIDOR,hourly; !- [J]
Output:Meter,General:InteriorLights:Electricity:Zone:SMALL_WEST_CORRIDOR,hourly; !- [J]
Output:Meter:Cumulative,General:InteriorLights:Electricity:Zone:SMALL_WEST_CORRIDOR,hourly; !- [J]
Output:Meter,Electricity:Zone:WEST_CORRIDOR,hourly; !- [J]
Output:Meter:Cumulative,Electricity:Zone:WEST_CORRIDOR,hourly; !- [J]
Output:Meter,InteriorLights:Electricity:Zone:WEST_CORRIDOR,hourly; !- [J]
Output:Meter:Cumulative,InteriorLights:Electricity:Zone:WEST_CORRIDOR,hourly; !- [J]
Output:Meter,General:InteriorLights:Electricity:Zone:WEST_CORRIDOR,hourly; !- [J]
Output:Meter:Cumulative,General:InteriorLights:Electricity:Zone:WEST_CORRIDOR,hourly; !- [J]
Output:Meter,Electricity:Zone:108,hourly; !- [J]
Output:Meter:Cumulative,Electricity:Zone:108,hourly; !- [J]
Output:Meter,InteriorLights:Electricity:Zone:108,hourly; !- [J]
Output:Meter:Cumulative,InteriorLights:Electricity:Zone:108,hourly; !- [J]
Output:Meter,General:InteriorLights:Electricity:Zone:108,hourly; !- [J]
Output:Meter:Cumulative,General:InteriorLights:Electricity:Zone:108,hourly; !- [J]
Output:Meter,Electricity:Zone:AUDITORIUM_LOBBY,hourly; !- [J]
Output:Meter:Cumulative,Electricity:Zone:AUDITORIUM_LOBBY,hourly; !- [J]
Output:Meter,InteriorLights:Electricity:Zone:AUDITORIUM_LOBBY,hourly; !- [J]
Output:Meter:Cumulative,InteriorLights:Electricity:Zone:AUDITORIUM_LOBBY,hourly; !- [J]
Output:Meter,General:InteriorLights:Electricity:Zone:AUDITORIUM_LOBBY,hourly; !- [J]
Output:Meter:Cumulative,General:InteriorLights:Electricity:Zone:AUDITORIUM_LOBBY,hourly; !- [J]
Output:Meter,Electricity:Zone:SE_HALL_PIANO,hourly; !- [J]
Output:Meter:Cumulative,Electricity:Zone:SE_HALL_PIANO,hourly; !- [J]
Output:Meter,InteriorLights:Electricity:Zone:SE_HALL_PIANO,hourly; !- [J]
Output:Meter:Cumulative,InteriorLights:Electricity:Zone:SE_HALL_PIANO,hourly; !- [J]
Output:Meter,General:InteriorLights:Electricity:Zone:SE_HALL_PIANO,hourly; !- [J]
Output:Meter:Cumulative,General:InteriorLights:Electricity:Zone:SE_HALL_PIANO,hourly; !- [J]
Output:Meter,Electricity:Zone:104_STORAGE,hourly; !- [J]
Output:Meter:Cumulative,Electricity:Zone:104_STORAGE,hourly; !- [J]
Output:Meter,InteriorLights:Electricity:Zone:104_STORAGE,hourly; !- [J]
Output:Meter:Cumulative,InteriorLights:Electricity:Zone:104_STORAGE,hourly; !- [J]
Output:Meter,General:InteriorLights:Electricity:Zone:104_STORAGE,hourly; !- [J]
Output:Meter:Cumulative,General:InteriorLights:Electricity:Zone:104_STORAGE,hourly; !- [J]
Output:Meter,Electricity:Zone:109,hourly; !- [J]
Output:Meter:Cumulative,Electricity:Zone:109,hourly; !- [J]
Output:Meter,InteriorLights:Electricity:Zone:109,hourly; !- [J]
Output:Meter:Cumulative,InteriorLights:Electricity:Zone:109,hourly; !- [J]
Output:Meter,General:InteriorLights:Electricity:Zone:109,hourly; !- [J]
Output:Meter:Cumulative,General:InteriorLights:Electricity:Zone:109,hourly; !- [J]
Output:Meter,Electricity:Zone:102_OFFICES,hourly; !- [J]
Output:Meter:Cumulative,Electricity:Zone:102_OFFICES,hourly; !- [J]
Output:Meter,InteriorLights:Electricity:Zone:102_OFFICES,hourly; !- [J]
Output:Meter:Cumulative,InteriorLights:Electricity:Zone:102_OFFICES,hourly; !- [J]
Output:Meter,General:InteriorLights:Electricity:Zone:102_OFFICES,hourly; !- [J]
Output:Meter:Cumulative,General:InteriorLights:Electricity:Zone:102_OFFICES,hourly; !- [J]
Output:Meter,Electricity:Zone:113_CAREER_SERVICES,hourly; !- [J]
Output:Meter:Cumulative,Electricity:Zone:113_CAREER_SERVICES,hourly; !- [J]
Output:Meter,InteriorLights:Electricity:Zone:113_CAREER_SERVICES,hourly; !- [J]
Output:Meter:Cumulative,InteriorLights:Electricity:Zone:113_CAREER_SERVICES,hourly; !- [J]
Output:Meter,General:InteriorLights:Electricity:Zone:113_CAREER_SERVICES,hourly; !- [J]
Output:Meter:Cumulative,General:InteriorLights:Electricity:Zone:113_CAREER_SERVICES,hourly; !- [J]
Output:Meter,Electricity:Zone:114_OFFICES,hourly; !- [J]
Output:Meter:Cumulative,Electricity:Zone:114_OFFICES,hourly; !- [J]
Output:Meter,InteriorLights:Electricity:Zone:114_OFFICES,hourly; !- [J]
Output:Meter:Cumulative,InteriorLights:Electricity:Zone:114_OFFICES,hourly; !- [J]
Output:Meter,General:InteriorLights:Electricity:Zone:114_OFFICES,hourly; !- [J]
Output:Meter:Cumulative,General:InteriorLights:Electricity:Zone:114_OFFICES,hourly; !- [J]
Output:Meter,Electricity:Zone:UPSTAIRS_OFFICES,hourly; !- [J]
Output:Meter:Cumulative,Electricity:Zone:UPSTAIRS_OFFICES,hourly; !- [J]
Output:Meter,InteriorLights:Electricity:Zone:UPSTAIRS_OFFICES,hourly; !- [J]
Output:Meter:Cumulative,InteriorLights:Electricity:Zone:UPSTAIRS_OFFICES,hourly; !- [J]
Output:Meter,General:InteriorLights:Electricity:Zone:UPSTAIRS_OFFICES,hourly; !- [J]
Output:Meter:Cumulative,General:InteriorLights:Electricity:Zone:UPSTAIRS_OFFICES,hourly; !- [J]
Output:Meter,Electricity:Zone:WEST_OFFICE_BLOCK,hourly; !- [J]
Output:Meter:Cumulative,Electricity:Zone:WEST_OFFICE_BLOCK,hourly; !- [J]
Output:Meter,InteriorLights:Electricity:Zone:WEST_OFFICE_BLOCK,hourly; !- [J]
Output:Meter:Cumulative,InteriorLights:Electricity:Zone:WEST_OFFICE_BLOCK,hourly; !- [J]
Output:Meter,General:InteriorLights:Electricity:Zone:WEST_OFFICE_BLOCK,hourly; !- [J]
Output:Meter:Cumulative,General:InteriorLights:Electricity:Zone:WEST_OFFICE_BLOCK,hourly; !- [J]
Output:Meter,Electricity:Zone:RESTROOMS,hourly; !- [J]
Output:Meter:Cumulative,Electricity:Zone:RESTROOMS,hourly; !- [J]
Output:Meter,InteriorLights:Electricity:Zone:RESTROOMS,hourly; !- [J]
Output:Meter:Cumulative,InteriorLights:Electricity:Zone:RESTROOMS,hourly; !- [J]
Output:Meter,General:InteriorLights:Electricity:Zone:RESTROOMS,hourly; !- [J]
Output:Meter:Cumulative,General:InteriorLights:Electricity:Zone:RESTROOMS,hourly; !- [J]
Output:Meter,InteriorEquipment:Electricity,hourly; !- [J]
Output:Meter:Cumulative,InteriorEquipment:Electricity,hourly; !- [J]
Output:Meter,InteriorEquipment:Electricity:Zone:NORTH_HALL,hourly; !- [J]
Output:Meter:Cumulative,InteriorEquipment:Electricity:Zone:NORTH_HALL,hourly; !- [J]
Output:Meter,InteriorEquipment:Electricity:SpaceType:GENERAL,hourly; !- [J]
Output:Meter:Cumulative,InteriorEquipment:Electricity:SpaceType:GENERAL,hourly; !- [J]
Output:Meter,Electric Equipment:InteriorEquipment:Electricity,hourly; !- [J]
Output:Meter:Cumulative,Electric Equipment:InteriorEquipment:Electricity,hourly; !- [J]
Output:Meter,Electric Equipment:InteriorEquipment:Electricity:Zone:NORTH_HALL,hourly; !- [J]
Output:Meter:Cumulative,Electric Equipment:InteriorEquipment:Electricity:Zone:NORTH_HALL,hourly; !- [J]
Output:Meter,Electric Equipment:InteriorEquipment:Electricity:SpaceType:GENERAL,hourly; !- [J]
Output:Meter:Cumulative,Electric Equipment:InteriorEquipment:Electricity:SpaceType:GENERAL,hourly; !- [J]
Output:Meter,InteriorEquipment:Electricity:Zone:SOUTH_HALL,hourly; !- [J]
Output:Meter:Cumulative,InteriorEquipment:Electricity:Zone:SOUTH_HALL,hourly; !- [J]
Output:Meter,Electric Equipment:InteriorEquipment:Electricity:Zone:SOUTH_HALL,hourly; !- [J]
Output:Meter:Cumulative,Electric Equipment:InteriorEquipment:Electricity:Zone:SOUTH_HALL,hourly; !- [J]
Output:Meter,InteriorEquipment:Electricity:Zone:BOGPLAY_1_D1F076F9,hourly; !- [J]
Output:Meter:Cumulative,InteriorEquipment:Electricity:Zone:BOGPLAY_1_D1F076F9,hourly; !- [J]
Output:Meter,Electric Equipment:InteriorEquipment:Electricity:Zone:BOGPLAY_1_D1F076F9,hourly; !- [J]
Output:Meter:Cumulative,Electric Equipment:InteriorEquipment:Electricity:Zone:BOGPLAY_1_D1F076F9,hourly; !- [J]
Output:Meter,InteriorEquipment:Electricity:Zone:BOGPLAY_2_D145E14C,hourly; !- [J]
Output:Meter:Cumulative,InteriorEquipment:Electricity:Zone:BOGPLAY_2_D145E14C,hourly; !- [J]
Output:Meter,Electric Equipment:InteriorEquipment:Electricity:Zone:BOGPLAY_2_D145E14C,hourly; !- [J]
Output:Meter:Cumulative,Electric Equipment:InteriorEquipment:Electricity:Zone:BOGPLAY_2_D145E14C,hourly; !- [J]
Output:Meter,InteriorEquipment:Electricity:Zone:STAIR_1_1681051F,hourly; !- [J]
Output:Meter:Cumulative,InteriorEquipment:Electricity:Zone:STAIR_1_1681051F,hourly; !- [J]
Output:Meter,Electric Equipment:InteriorEquipment:Electricity:Zone:STAIR_1_1681051F,hourly; !- [J]
Output:Meter:Cumulative,Electric Equipment:InteriorEquipment:Electricity:Zone:STAIR_1_1681051F,hourly; !- [J]
Output:Meter,InteriorEquipment:Electricity:Zone:STAIR_2_976E6FD5,hourly; !- [J]
Output:Meter:Cumulative,InteriorEquipment:Electricity:Zone:STAIR_2_976E6FD5,hourly; !- [J]
Output:Meter,Electric Equipment:InteriorEquipment:Electricity:Zone:STAIR_2_976E6FD5,hourly; !- [J]
Output:Meter:Cumulative,Electric Equipment:InteriorEquipment:Electricity:Zone:STAIR_2_976E6FD5,hourly; !- [J]
Output:Meter,InteriorEquipment:Electricity:Zone:STAIR_3_8F089848,hourly; !- [J]
Output:Meter:Cumulative,InteriorEquipment:Electricity:Zone:STAIR_3_8F089848,hourly; !- [J]
Output:Meter,Electric Equipment:InteriorEquipment:Electricity:Zone:STAIR_3_8F089848,hourly; !- [J]
Output:Meter:Cumulative,Electric Equipment:InteriorEquipment:Electricity:Zone:STAIR_3_8F089848,hourly; !- [J]
Output:Meter,InteriorEquipment:Electricity:Zone:BOGPLAY_1_B863644B,hourly; !- [J]
Output:Meter:Cumulative,InteriorEquipment:Electricity:Zone:BOGPLAY_1_B863644B,hourly; !- [J]
Output:Meter,Electric Equipment:InteriorEquipment:Electricity:Zone:BOGPLAY_1_B863644B,hourly; !- [J]
Output:Meter:Cumulative,Electric Equipment:InteriorEquipment:Electricity:Zone:BOGPLAY_1_B863644B,hourly; !- [J]
Output:Meter,InteriorEquipment:Electricity:Zone:BOGPLAY_2_4B3AE9FE,hourly; !- [J]
Output:Meter:Cumulative,InteriorEquipment:Electricity:Zone:BOGPLAY_2_4B3AE9FE,hourly; !- [J]
Output:Meter,Electric Equipment:InteriorEquipment:Electricity:Zone:BOGPLAY_2_4B3AE9FE,hourly; !- [J]
Output:Meter:Cumulative,Electric Equipment:InteriorEquipment:Electricity:Zone:BOGPLAY_2_4B3AE9FE,hourly; !- [J]
Output:Meter,InteriorEquipment:Electricity:Zone:BOGDINING_E25F401A,hourly; !- [J]
Output:Meter:Cumulative,InteriorEquipment:Electricity:Zone:BOGDINING_E25F401A,hourly; !- [J]
Output:Meter,Electric Equipment:InteriorEquipment:Electricity:Zone:BOGDINING_E25F401A,hourly; !- [J]
Output:Meter:Cumulative,Electric Equipment:InteriorEquipment:Electricity:Zone:BOGDINING_E25F401A,hourly; !- [J]
Output:Meter,InteriorEquipment:Electricity:Zone:KITCHEN_1_55B9A759,hourly; !- [J]
Output:Meter:Cumulative,InteriorEquipment:Electricity:Zone:KITCHEN_1_55B9A759,hourly; !- [J]
Output:Meter,Electric Equipment:InteriorEquipment:Electricity:Zone:KITCHEN_1_55B9A759,hourly; !- [J]
Output:Meter:Cumulative,Electric Equipment:InteriorEquipment:Electricity:Zone:KITCHEN_1_55B9A759,hourly; !- [J]
Output:Meter,InteriorEquipment:Electricity:Zone:KITCHEN_2_B940211D,hourly; !- [J]
Output:Meter:Cumulative,InteriorEquipment:Electricity:Zone:KITCHEN_2_B940211D,hourly; !- [J]
Output:Meter,Electric Equipment:InteriorEquipment:Electricity:Zone:KITCHEN_2_B940211D,hourly; !- [J]
Output:Meter:Cumulative,Electric Equipment:InteriorEquipment:Electricity:Zone:KITCHEN_2_B940211D,hourly; !- [J]
Output:Meter,InteriorEquipment:Electricity:Zone:KITCHEN_3_3E9A0FB8,hourly; !- [J]
Output:Meter:Cumulative,InteriorEquipment:Electricity:Zone:KITCHEN_3_3E9A0FB8,hourly; !- [J]
Output:Meter,Electric Equipment:InteriorEquipment:Electricity:Zone:KITCHEN_3_3E9A0FB8,hourly; !- [J]
Output:Meter:Cumulative,Electric Equipment:InteriorEquipment:Electricity:Zone:KITCHEN_3_3E9A0FB8,hourly; !- [J]
Output:Meter,InteriorEquipment:Electricity:Zone:AUDITORIUMLOWER_0B49D193,hourly; !- [J]
Output:Meter:Cumulative,InteriorEquipment:Electricity:Zone:AUDITORIUMLOWER_0B49D193,hourly; !- [J]
Output:Meter,Electric Equipment:InteriorEquipment:Electricity:Zone:AUDITORIUMLOWER_0B49D193,hourly; !- [J]
Output:Meter:Cumulative,Electric Equipment:InteriorEquipment:Electricity:Zone:AUDITORIUMLOWER_0B49D193,hourly; !- [J]
Output:Meter,InteriorEquipment:Electricity:Zone:CLASSROOM_1_90B605A9,hourly; !- [J]
Output:Meter:Cumulative,InteriorEquipment:Electricity:Zone:CLASSROOM_1_90B605A9,hourly; !- [J]
Output:Meter,Electric Equipment:InteriorEquipment:Electricity:Zone:CLASSROOM_1_90B605A9,hourly; !- [J]
Output:Meter:Cumulative,Electric Equipment:InteriorEquipment:Electricity:Zone:CLASSROOM_1_90B605A9,hourly; !- [J]
Output:Meter,InteriorEquipment:Electricity:Zone:CLASSROOM_2_ECCCF8B8,hourly; !- [J]
Output:Meter:Cumulative,InteriorEquipment:Electricity:Zone:CLASSROOM_2_ECCCF8B8,hourly; !- [J]
Output:Meter,Electric Equipment:InteriorEquipment:Electricity:Zone:CLASSROOM_2_ECCCF8B8,hourly; !- [J]
Output:Meter:Cumulative,Electric Equipment:InteriorEquipment:Electricity:Zone:CLASSROOM_2_ECCCF8B8,hourly; !- [J]
Output:Meter,InteriorEquipment:Electricity:Zone:ROOM_13_B04291D5,hourly; !- [J]
Output:Meter:Cumulative,InteriorEquipment:Electricity:Zone:ROOM_13_B04291D5,hourly; !- [J]
Output:Meter,Electric Equipment:InteriorEquipment:Electricity:Zone:ROOM_13_B04291D5,hourly; !- [J]
Output:Meter:Cumulative,Electric Equipment:InteriorEquipment:Electricity:Zone:ROOM_13_B04291D5,hourly; !- [J]
Output:Meter,InteriorEquipment:Electricity:Zone:CORRIDOR_1_FA1FE4C1,hourly; !- [J]
Output:Meter:Cumulative,InteriorEquipment:Electricity:Zone:CORRIDOR_1_FA1FE4C1,hourly; !- [J]
Output:Meter,Electric Equipment:InteriorEquipment:Electricity:Zone:CORRIDOR_1_FA1FE4C1,hourly; !- [J]
Output:Meter:Cumulative,Electric Equipment:InteriorEquipment:Electricity:Zone:CORRIDOR_1_FA1FE4C1,hourly; !- [J]
Output:Meter,InteriorEquipment:Electricity:Zone:CORRIDOR_2_CFBEC8AA,hourly; !- [J]
Output:Meter:Cumulative,InteriorEquipment:Electricity:Zone:CORRIDOR_2_CFBEC8AA,hourly; !- [J]
Output:Meter,Electric Equipment:InteriorEquipment:Electricity:Zone:CORRIDOR_2_CFBEC8AA,hourly; !- [J]
Output:Meter:Cumulative,Electric Equipment:InteriorEquipment:Electricity:Zone:CORRIDOR_2_CFBEC8AA,hourly; !- [J]
Output:Meter,InteriorEquipment:Electricity:Zone:CORRIDOR_3_7621FA0C,hourly; !- [J]
Output:Meter:Cumulative,InteriorEquipment:Electricity:Zone:CORRIDOR_3_7621FA0C,hourly; !- [J]
Output:Meter,Electric Equipment:InteriorEquipment:Electricity:Zone:CORRIDOR_3_7621FA0C,hourly; !- [J]
Output:Meter:Cumulative,Electric Equipment:InteriorEquipment:Electricity:Zone:CORRIDOR_3_7621FA0C,hourly; !- [J]
Output:Meter,InteriorEquipment:Electricity:Zone:CORRIDOR_4_9B747DDD,hourly; !- [J]
Output:Meter:Cumulative,InteriorEquipment:Electricity:Zone:CORRIDOR_4_9B747DDD,hourly; !- [J]
Output:Meter,Electric Equipment:InteriorEquipment:Electricity:Zone:CORRIDOR_4_9B747DDD,hourly; !- [J]
Output:Meter:Cumulative,Electric Equipment:InteriorEquipment:Electricity:Zone:CORRIDOR_4_9B747DDD,hourly; !- [J]
Output:Meter,InteriorEquipment:Electricity:Zone:MECH_1_40A96879,hourly; !- [J]
Output:Meter:Cumulative,InteriorEquipment:Electricity:Zone:MECH_1_40A96879,hourly; !- [J]
Output:Meter,Electric Equipment:InteriorEquipment:Electricity:Zone:MECH_1_40A96879,hourly; !- [J]
Output:Meter:Cumulative,Electric Equipment:InteriorEquipment:Electricity:Zone:MECH_1_40A96879,hourly; !- [J]
Output:Meter,InteriorEquipment:Electricity:Zone:MECH_2_C6ABCC9A,hourly; !- [J]
Output:Meter:Cumulative,InteriorEquipment:Electricity:Zone:MECH_2_C6ABCC9A,hourly; !- [J]
Output:Meter,Electric Equipment:InteriorEquipment:Electricity:Zone:MECH_2_C6ABCC9A,hourly; !- [J]
Output:Meter:Cumulative,Electric Equipment:InteriorEquipment:Electricity:Zone:MECH_2_C6ABCC9A,hourly; !- [J]
Output:Meter,InteriorEquipment:Electricity:Zone:MECH_3_6E799E0F,hourly; !- [J]
Output:Meter:Cumulative,InteriorEquipment:Electricity:Zone:MECH_3_6E799E0F,hourly; !- [J]
Output:Meter,Electric Equipment:InteriorEquipment:Electricity:Zone:MECH_3_6E799E0F,hourly; !- [J]
Output:Meter:Cumulative,Electric Equipment:InteriorEquipment:Electricity:Zone:MECH_3_6E799E0F,hourly; !- [J]
Output:Meter,InteriorEquipment:Electricity:Zone:MECH_4_99985F88,hourly; !- [J]
Output:Meter:Cumulative,InteriorEquipment:Electricity:Zone:MECH_4_99985F88,hourly; !- [J]
Output:Meter,Electric Equipment:InteriorEquipment:Electricity:Zone:MECH_4_99985F88,hourly; !- [J]
Output:Meter:Cumulative,Electric Equipment:InteriorEquipment:Electricity:Zone:MECH_4_99985F88,hourly; !- [J]
Output:Meter,InteriorEquipment:Electricity:Zone:OFFICE_1_B1424685,hourly; !- [J]
Output:Meter:Cumulative,InteriorEquipment:Electricity:Zone:OFFICE_1_B1424685,hourly; !- [J]
Output:Meter,Electric Equipment:InteriorEquipment:Electricity:Zone:OFFICE_1_B1424685,hourly; !- [J]
Output:Meter:Cumulative,Electric Equipment:InteriorEquipment:Electricity:Zone:OFFICE_1_B1424685,hourly; !- [J]
Output:Meter,InteriorEquipment:Electricity:Zone:OFFICE_2_37CC8413,hourly; !- [J]
Output:Meter:Cumulative,InteriorEquipment:Electricity:Zone:OFFICE_2_37CC8413,hourly; !- [J]
Output:Meter,Electric Equipment:InteriorEquipment:Electricity:Zone:OFFICE_2_37CC8413,hourly; !- [J]
Output:Meter:Cumulative,Electric Equipment:InteriorEquipment:Electricity:Zone:OFFICE_2_37CC8413,hourly; !- [J]
Output:Meter,InteriorEquipment:Electricity:Zone:OFFICE_3_93B2C9FF,hourly; !- [J]
Output:Meter:Cumulative,InteriorEquipment:Electricity:Zone:OFFICE_3_93B2C9FF,hourly; !- [J]
Output:Meter,Electric Equipment:InteriorEquipment:Electricity:Zone:OFFICE_3_93B2C9FF,hourly; !- [J]
Output:Meter:Cumulative,Electric Equipment:InteriorEquipment:Electricity:Zone:OFFICE_3_93B2C9FF,hourly; !- [J]
Output:Meter,InteriorEquipment:Electricity:Zone:OFFICE_4_3DD7EBAB,hourly; !- [J]
Output:Meter:Cumulative,InteriorEquipment:Electricity:Zone:OFFICE_4_3DD7EBAB,hourly; !- [J]
Output:Meter,Electric Equipment:InteriorEquipment:Electricity:Zone:OFFICE_4_3DD7EBAB,hourly; !- [J]
Output:Meter:Cumulative,Electric Equipment:InteriorEquipment:Electricity:Zone:OFFICE_4_3DD7EBAB,hourly; !- [J]
Output:Meter,InteriorEquipment:Electricity:Zone:OFFICE_5_682148B2,hourly; !- [J]
Output:Meter:Cumulative,InteriorEquipment:Electricity:Zone:OFFICE_5_682148B2,hourly; !- [J]
Output:Meter,Electric Equipment:InteriorEquipment:Electricity:Zone:OFFICE_5_682148B2,hourly; !- [J]
Output:Meter:Cumulative,Electric Equipment:InteriorEquipment:Electricity:Zone:OFFICE_5_682148B2,hourly; !- [J]
Output:Meter,InteriorEquipment:Electricity:Zone:OFFICE_6_61DD9104,hourly; !- [J]
Output:Meter:Cumulative,InteriorEquipment:Electricity:Zone:OFFICE_6_61DD9104,hourly; !- [J]
Output:Meter,Electric Equipment:InteriorEquipment:Electricity:Zone:OFFICE_6_61DD9104,hourly; !- [J]
Output:Meter:Cumulative,Electric Equipment:InteriorEquipment:Electricity:Zone:OFFICE_6_61DD9104,hourly; !- [J]
Output:Meter,InteriorEquipment:Electricity:Zone:RESTROOM_1_404313B9,hourly; !- [J]
Output:Meter:Cumulative,InteriorEquipment:Electricity:Zone:RESTROOM_1_404313B9,hourly; !- [J]
Output:Meter,Electric Equipment:InteriorEquipment:Electricity:Zone:RESTROOM_1_404313B9,hourly; !- [J]
Output:Meter:Cumulative,Electric Equipment:InteriorEquipment:Electricity:Zone:RESTROOM_1_404313B9,hourly; !- [J]
Output:Meter,InteriorEquipment:Electricity:Zone:RESTROOM_2_A377B4B3,hourly; !- [J]
Output:Meter:Cumulative,InteriorEquipment:Electricity:Zone:RESTROOM_2_A377B4B3,hourly; !- [J]
Output:Meter,Electric Equipment:InteriorEquipment:Electricity:Zone:RESTROOM_2_A377B4B3,hourly; !- [J]
Output:Meter:Cumulative,Electric Equipment:InteriorEquipment:Electricity:Zone:RESTROOM_2_A377B4B3,hourly; !- [J]
Output:Meter,InteriorEquipment:Electricity:Zone:RESTROOM_3_C201E5F7,hourly; !- [J]
Output:Meter:Cumulative,InteriorEquipment:Electricity:Zone:RESTROOM_3_C201E5F7,hourly; !- [J]
Output:Meter,Electric Equipment:InteriorEquipment:Electricity:Zone:RESTROOM_3_C201E5F7,hourly; !- [J]
Output:Meter:Cumulative,Electric Equipment:InteriorEquipment:Electricity:Zone:RESTROOM_3_C201E5F7,hourly; !- [J]
Output:Meter,InteriorEquipment:Electricity:Zone:RESTROOM_4_33BABDA2,hourly; !- [J]
Output:Meter:Cumulative,InteriorEquipment:Electricity:Zone:RESTROOM_4_33BABDA2,hourly; !- [J]
Output:Meter,Electric Equipment:InteriorEquipment:Electricity:Zone:RESTROOM_4_33BABDA2,hourly; !- [J]
Output:Meter:Cumulative,Electric Equipment:InteriorEquipment:Electricity:Zone:RESTROOM_4_33BABDA2,hourly; !- [J]
Output:Meter,InteriorEquipment:Electricity:Zone:RESTROOM_5_911A78E2,hourly; !- [J]
Output:Meter:Cumulative,InteriorEquipment:Electricity:Zone:RESTROOM_5_911A78E2,hourly; !- [J]
Output:Meter,Electric Equipment:InteriorEquipment:Electricity:Zone:RESTROOM_5_911A78E2,hourly; !- [J]
Output:Meter:Cumulative,Electric Equipment:InteriorEquipment:Electricity:Zone:RESTROOM_5_911A78E2,hourly; !- [J]
Output:Meter,InteriorEquipment:Electricity:Zone:RESTROOM_6_A019D741,hourly; !- [J]
Output:Meter:Cumulative,InteriorEquipment:Electricity:Zone:RESTROOM_6_A019D741,hourly; !- [J]
Output:Meter,Electric Equipment:InteriorEquipment:Electricity:Zone:RESTROOM_6_A019D741,hourly; !- [J]
Output:Meter:Cumulative,Electric Equipment:InteriorEquipment:Electricity:Zone:RESTROOM_6_A019D741,hourly; !- [J]
Output:Meter,InteriorEquipment:Electricity:Zone:100_AUDITORIUM,hourly; !- [J]
Output:Meter:Cumulative,InteriorEquipment:Electricity:Zone:100_AUDITORIUM,hourly; !- [J]
Output:Meter,Electric Equipment:InteriorEquipment:Electricity:Zone:100_AUDITORIUM,hourly; !- [J]
Output:Meter:Cumulative,Electric Equipment:InteriorEquipment:Electricity:Zone:100_AUDITORIUM,hourly; !- [J]
Output:Meter,InteriorEquipment:Electricity:Zone:112_ARC,hourly; !- [J]
Output:Meter:Cumulative,InteriorEquipment:Electricity:Zone:112_ARC,hourly; !- [J]
Output:Meter,Electric Equipment:InteriorEquipment:Electricity:Zone:112_ARC,hourly; !- [J]
Output:Meter:Cumulative,Electric Equipment:InteriorEquipment:Electricity:Zone:112_ARC,hourly; !- [J]
Output:Meter,InteriorEquipment:Electricity:Zone:EAST_CORRIDOR,hourly; !- [J]
Output:Meter:Cumulative,InteriorEquipment:Electricity:Zone:EAST_CORRIDOR,hourly; !- [J]
Output:Meter,Electric Equipment:InteriorEquipment:Electricity:Zone:EAST_CORRIDOR,hourly; !- [J]
Output:Meter:Cumulative,Electric Equipment:InteriorEquipment:Electricity:Zone:EAST_CORRIDOR,hourly; !- [J]
Output:Meter,InteriorEquipment:Electricity:Zone:EAST_SMALL_CORRIDOR,hourly; !- [J]
Output:Meter:Cumulative,InteriorEquipment:Electricity:Zone:EAST_SMALL_CORRIDOR,hourly; !- [J]
Output:Meter,Electric Equipment:InteriorEquipment:Electricity:Zone:EAST_SMALL_CORRIDOR,hourly; !- [J]
Output:Meter:Cumulative,Electric Equipment:InteriorEquipment:Electricity:Zone:EAST_SMALL_CORRIDOR,hourly; !- [J]
Output:Meter,InteriorEquipment:Electricity:Zone:SMALL_WEST_CORRIDOR,hourly; !- [J]
Output:Meter:Cumulative,InteriorEquipment:Electricity:Zone:SMALL_WEST_CORRIDOR,hourly; !- [J]
Output:Meter,Electric Equipment:InteriorEquipment:Electricity:Zone:SMALL_WEST_CORRIDOR,hourly; !- [J]
Output:Meter:Cumulative,Electric Equipment:InteriorEquipment:Electricity:Zone:SMALL_WEST_CORRIDOR,hourly; !- [J]
Output:Meter,InteriorEquipment:Electricity:Zone:WEST_CORRIDOR,hourly; !- [J]
Output:Meter:Cumulative,InteriorEquipment:Electricity:Zone:WEST_CORRIDOR,hourly; !- [J]
Output:Meter,Electric Equipment:InteriorEquipment:Electricity:Zone:WEST_CORRIDOR,hourly; !- [J]
Output:Meter:Cumulative,Electric Equipment:InteriorEquipment:Electricity:Zone:WEST_CORRIDOR,hourly; !- [J]
Output:Meter,InteriorEquipment:Electricity:Zone:108,hourly; !- [J]
Output:Meter:Cumulative,InteriorEquipment:Electricity:Zone:108,hourly; !- [J]
Output:Meter,Electric Equipment:InteriorEquipment:Electricity:Zone:108,hourly; !- [J]
Output:Meter:Cumulative,Electric Equipment:InteriorEquipment:Electricity:Zone:108,hourly; !- [J]
Output:Meter,InteriorEquipment:Electricity:Zone:AUDITORIUM_LOBBY,hourly; !- [J]
Output:Meter:Cumulative,InteriorEquipment:Electricity:Zone:AUDITORIUM_LOBBY,hourly; !- [J]
Output:Meter,Electric Equipment:InteriorEquipment:Electricity:Zone:AUDITORIUM_LOBBY,hourly; !- [J]
Output:Meter:Cumulative,Electric Equipment:InteriorEquipment:Electricity:Zone:AUDITORIUM_LOBBY,hourly; !- [J]
Output:Meter,InteriorEquipment:Electricity:Zone:SE_HALL_PIANO,hourly; !- [J]
Output:Meter:Cumulative,InteriorEquipment:Electricity:Zone:SE_HALL_PIANO,hourly; !- [J]
Output:Meter,Electric Equipment:InteriorEquipment:Electricity:Zone:SE_HALL_PIANO,hourly; !- [J]
Output:Meter:Cumulative,Electric Equipment:InteriorEquipment:Electricity:Zone:SE_HALL_PIANO,hourly; !- [J]
Output:Meter,InteriorEquipment:Electricity:Zone:104_STORAGE,hourly; !- [J]
Output:Meter:Cumulative,InteriorEquipment:Electricity:Zone:104_STORAGE,hourly; !- [J]
Output:Meter,Electric Equipment:InteriorEquipment:Electricity:Zone:104_STORAGE,hourly; !- [J]
Output:Meter:Cumulative,Electric Equipment:InteriorEquipment:Electricity:Zone:104_STORAGE,hourly; !- [J]
Output:Meter,InteriorEquipment:Electricity:Zone:109,hourly; !- [J]
Output:Meter:Cumulative,InteriorEquipment:Electricity:Zone:109,hourly; !- [J]
Output:Meter,Electric Equipment:InteriorEquipment:Electricity:Zone:109,hourly; !- [J]
Output:Meter:Cumulative,Electric Equipment:InteriorEquipment:Electricity:Zone:109,hourly; !- [J]
Output:Meter,InteriorEquipment:Electricity:Zone:102_OFFICES,hourly; !- [J]
Output:Meter:Cumulative,InteriorEquipment:Electricity:Zone:102_OFFICES,hourly; !- [J]
Output:Meter,Electric Equipment:InteriorEquipment:Electricity:Zone:102_OFFICES,hourly; !- [J]
Output:Meter:Cumulative,Electric Equipment:InteriorEquipment:Electricity:Zone:102_OFFICES,hourly; !- [J]
Output:Meter,InteriorEquipment:Electricity:Zone:113_CAREER_SERVICES,hourly; !- [J]
Output:Meter:Cumulative,InteriorEquipment:Electricity:Zone:113_CAREER_SERVICES,hourly; !- [J]
Output:Meter,Electric Equipment:InteriorEquipment:Electricity:Zone:113_CAREER_SERVICES,hourly; !- [J]
Output:Meter:Cumulative,Electric Equipment:InteriorEquipment:Electricity:Zone:113_CAREER_SERVICES,hourly; !- [J]
Output:Meter,InteriorEquipment:Electricity:Zone:114_OFFICES,hourly; !- [J]
Output:Meter:Cumulative,InteriorEquipment:Electricity:Zone:114_OFFICES,hourly; !- [J]
Output:Meter,Electric Equipment:InteriorEquipment:Electricity:Zone:114_OFFICES,hourly; !- [J]
Output:Meter:Cumulative,Electric Equipment:InteriorEquipment:Electricity:Zone:114_OFFICES,hourly; !- [J]
Output:Meter,InteriorEquipment:Electricity:Zone:UPSTAIRS_OFFICES,hourly; !- [J]
Output:Meter:Cumulative,InteriorEquipment:Electricity:Zone:UPSTAIRS_OFFICES,hourly; !- [J]
Output:Meter,Electric Equipment:InteriorEquipment:Electricity:Zone:UPSTAIRS_OFFICES,hourly; !- [J]
Output:Meter:Cumulative,Electric Equipment:InteriorEquipment:Electricity:Zone:UPSTAIRS_OFFICES,hourly; !- [J]
Output:Meter,InteriorEquipment:Electricity:Zone:WEST_OFFICE_BLOCK,hourly; !- [J]
Output:Meter:Cumulative,InteriorEquipment:Electricity:Zone:WEST_OFFICE_BLOCK,hourly; !- [J]
Output:Meter,Electric Equipment:InteriorEquipment:Electricity:Zone:WEST_OFFICE_BLOCK,hourly; !- [J]
Output:Meter:Cumulative,Electric Equipment:InteriorEquipment:Electricity:Zone:WEST_OFFICE_BLOCK,hourly; !- [J]
Output:Meter,InteriorEquipment:Electricity:Zone:RESTROOMS,hourly; !- [J]
Output:Meter:Cumulative,InteriorEquipment:Electricity:Zone:RESTROOMS,hourly; !- [J]
Output:Meter,Electric Equipment:InteriorEquipment:Electricity:Zone:RESTROOMS,hourly; !- [J]
Output:Meter:Cumulative,Electric Equipment:InteriorEquipment:Electricity:Zone:RESTROOMS,hourly; !- [J]
Output:Meter,NaturalGas:Facility,hourly; !- [J]
Output:Meter:Cumulative,NaturalGas:Facility,hourly; !- [J]
Output:Meter,NaturalGas:Building,hourly; !- [J]
Output:Meter:Cumulative,NaturalGas:Building,hourly; !- [J]
Output:Meter,NaturalGas:Zone:KITCHEN_1_55B9A759,hourly; !- [J]
Output:Meter:Cumulative,NaturalGas:Zone:KITCHEN_1_55B9A759,hourly; !- [J]
Output:Meter,NaturalGas:SpaceType:GENERAL,hourly; !- [J]
Output:Meter:Cumulative,NaturalGas:SpaceType:GENERAL,hourly; !- [J]
Output:Meter,InteriorEquipment:NaturalGas,hourly; !- [J]
Output:Meter:Cumulative,InteriorEquipment:NaturalGas,hourly; !- [J]
Output:Meter,InteriorEquipment:NaturalGas:Zone:KITCHEN_1_55B9A759,hourly; !- [J]
Output:Meter:Cumulative,InteriorEquipment:NaturalGas:Zone:KITCHEN_1_55B9A759,hourly; !- [J]
Output:Meter,InteriorEquipment:NaturalGas:SpaceType:GENERAL,hourly; !- [J]
Output:Meter:Cumulative,InteriorEquipment:NaturalGas:SpaceType:GENERAL,hourly; !- [J]
Output:Meter,Gas Equipment:InteriorEquipment:NaturalGas,hourly; !- [J]
Output:Meter:Cumulative,Gas Equipment:InteriorEquipment:NaturalGas,hourly; !- [J]
Output:Meter,Gas Equipment:InteriorEquipment:NaturalGas:Zone:KITCHEN_1_55B9A759,hourly; !- [J]
Output:Meter:Cumulative,Gas Equipment:InteriorEquipment:NaturalGas:Zone:KITCHEN_1_55B9A759,hourly; !- [J]
Output:Meter,Gas Equipment:InteriorEquipment:NaturalGas:SpaceType:GENERAL,hourly; !- [J]
Output:Meter:Cumulative,Gas Equipment:InteriorEquipment:NaturalGas:SpaceType:GENERAL,hourly; !- [J]
Output:Meter,NaturalGas:Zone:KITCHEN_2_B940211D,hourly; !- [J]
Output:Meter:Cumulative,NaturalGas:Zone:KITCHEN_2_B940211D,hourly; !- [J]
Output:Meter,InteriorEquipment:NaturalGas:Zone:KITCHEN_2_B940211D,hourly; !- [J]
Output:Meter:Cumulative,InteriorEquipment:NaturalGas:Zone:KITCHEN_2_B940211D,hourly; !- [J]
Output:Meter,Gas Equipment:InteriorEquipment:NaturalGas:Zone:KITCHEN_2_B940211D,hourly; !- [J]
Output:Meter:Cumulative,Gas Equipment:InteriorEquipment:NaturalGas:Zone:KITCHEN_2_B940211D,hourly; !- [J]
Output:Meter,NaturalGas:Zone:KITCHEN_3_3E9A0FB8,hourly; !- [J]
Output:Meter:Cumulative,NaturalGas:Zone:KITCHEN_3_3E9A0FB8,hourly; !- [J]
Output:Meter,InteriorEquipment:NaturalGas:Zone:KITCHEN_3_3E9A0FB8,hourly; !- [J]
Output:Meter:Cumulative,InteriorEquipment:NaturalGas:Zone:KITCHEN_3_3E9A0FB8,hourly; !- [J]
Output:Meter,Gas Equipment:InteriorEquipment:NaturalGas:Zone:KITCHEN_3_3E9A0FB8,hourly; !- [J]
Output:Meter:Cumulative,Gas Equipment:InteriorEquipment:NaturalGas:Zone:KITCHEN_3_3E9A0FB8,hourly; !- [J]
Output:Meter,EnergyTransfer:Facility,hourly; !- [J]
Output:Meter:Cumulative,EnergyTransfer:Facility,hourly; !- [J]
Output:Meter,EnergyTransfer:Building,hourly; !- [J]
Output:Meter:Cumulative,EnergyTransfer:Building,hourly; !- [J]
Output:Meter,EnergyTransfer:Zone:100_AUDITORIUM,hourly; !- [J]
Output:Meter:Cumulative,EnergyTransfer:Zone:100_AUDITORIUM,hourly; !- [J]
Output:Meter,Heating:EnergyTransfer,hourly; !- [J]
Output:Meter:Cumulative,Heating:EnergyTransfer,hourly; !- [J]
Output:Meter,Heating:EnergyTransfer:Zone:100_AUDITORIUM,hourly; !- [J]
Output:Meter:Cumulative,Heating:EnergyTransfer:Zone:100_AUDITORIUM,hourly; !- [J]
Output:Meter,General:Heating:EnergyTransfer,hourly; !- [J]
Output:Meter:Cumulative,General:Heating:EnergyTransfer,hourly; !- [J]
Output:Meter,General:Heating:EnergyTransfer:Zone:100_AUDITORIUM,hourly; !- [J]
Output:Meter:Cumulative,General:Heating:EnergyTransfer:Zone:100_AUDITORIUM,hourly; !- [J]
Output:Meter,Cooling:EnergyTransfer,hourly; !- [J]
Output:Meter:Cumulative,Cooling:EnergyTransfer,hourly; !- [J]
Output:Meter,Cooling:EnergyTransfer:Zone:100_AUDITORIUM,hourly; !- [J]
Output:Meter:Cumulative,Cooling:EnergyTransfer:Zone:100_AUDITORIUM,hourly; !- [J]
Output:Meter,General:Cooling:EnergyTransfer,hourly; !- [J]
Output:Meter:Cumulative,General:Cooling:EnergyTransfer,hourly; !- [J]
Output:Meter,General:Cooling:EnergyTransfer:Zone:100_AUDITORIUM,hourly; !- [J]
Output:Meter:Cumulative,General:Cooling:EnergyTransfer:Zone:100_AUDITORIUM,hourly; !- [J]
Output:Meter,EnergyTransfer:Zone:102_OFFICES,hourly; !- [J]
Output:Meter:Cumulative,EnergyTransfer:Zone:102_OFFICES,hourly; !- [J]
Output:Meter,Heating:EnergyTransfer:Zone:102_OFFICES,hourly; !- [J]
Output:Meter:Cumulative,Heating:EnergyTransfer:Zone:102_OFFICES,hourly; !- [J]
Output:Meter,General:Heating:EnergyTransfer:Zone:102_OFFICES,hourly; !- [J]
Output:Meter:Cumulative,General:Heating:EnergyTransfer:Zone:102_OFFICES,hourly; !- [J]
Output:Meter,Cooling:EnergyTransfer:Zone:102_OFFICES,hourly; !- [J]
Output:Meter:Cumulative,Cooling:EnergyTransfer:Zone:102_OFFICES,hourly; !- [J]
Output:Meter,General:Cooling:EnergyTransfer:Zone:102_OFFICES,hourly; !- [J]
Output:Meter:Cumulative,General:Cooling:EnergyTransfer:Zone:102_OFFICES,hourly; !- [J]
Output:Meter,EnergyTransfer:Zone:104_STORAGE,hourly; !- [J]
Output:Meter:Cumulative,EnergyTransfer:Zone:104_STORAGE,hourly; !- [J]
Output:Meter,Heating:EnergyTransfer:Zone:104_STORAGE,hourly; !- [J]
Output:Meter:Cumulative,Heating:EnergyTransfer:Zone:104_STORAGE,hourly; !- [J]
Output:Meter,General:Heating:EnergyTransfer:Zone:104_STORAGE,hourly; !- [J]
Output:Meter:Cumulative,General:Heating:EnergyTransfer:Zone:104_STORAGE,hourly; !- [J]
Output:Meter,Cooling:EnergyTransfer:Zone:104_STORAGE,hourly; !- [J]
Output:Meter:Cumulative,Cooling:EnergyTransfer:Zone:104_STORAGE,hourly; !- [J]
Output:Meter,General:Cooling:EnergyTransfer:Zone:104_STORAGE,hourly; !- [J]
Output:Meter:Cumulative,General:Cooling:EnergyTransfer:Zone:104_STORAGE,hourly; !- [J]
Output:Meter,EnergyTransfer:Zone:108,hourly; !- [J]
Output:Meter:Cumulative,EnergyTransfer:Zone:108,hourly; !- [J]
Output:Meter,Heating:EnergyTransfer:Zone:108,hourly; !- [J]
Output:Meter:Cumulative,Heating:EnergyTransfer:Zone:108,hourly; !- [J]
Output:Meter,General:Heating:EnergyTransfer:Zone:108,hourly; !- [J]
Output:Meter:Cumulative,General:Heating:EnergyTransfer:Zone:108,hourly; !- [J]
Output:Meter,Cooling:EnergyTransfer:Zone:108,hourly; !- [J]
Output:Meter:Cumulative,Cooling:EnergyTransfer:Zone:108,hourly; !- [J]
Output:Meter,General:Cooling:EnergyTransfer:Zone:108,hourly; !- [J]
Output:Meter:Cumulative,General:Cooling:EnergyTransfer:Zone:108,hourly; !- [J]
Output:Meter,EnergyTransfer:Zone:109,hourly; !- [J]
Output:Meter:Cumulative,EnergyTransfer:Zone:109,hourly; !- [J]
Output:Meter,Heating:EnergyTransfer:Zone:109,hourly; !- [J]
Output:Meter:Cumulative,Heating:EnergyTransfer:Zone:109,hourly; !- [J]
Output:Meter,General:Heating:EnergyTransfer:Zone:109,hourly; !- [J]
Output:Meter:Cumulative,General:Heating:EnergyTransfer:Zone:109,hourly; !- [J]
Output:Meter,Cooling:EnergyTransfer:Zone:109,hourly; !- [J]
Output:Meter:Cumulative,Cooling:EnergyTransfer:Zone:109,hourly; !- [J]
Output:Meter,General:Cooling:EnergyTransfer:Zone:109,hourly; !- [J]
Output:Meter:Cumulative,General:Cooling:EnergyTransfer:Zone:109,hourly; !- [J]
Output:Meter,EnergyTransfer:Zone:112_ARC,hourly; !- [J]
Output:Meter:Cumulative,EnergyTransfer:Zone:112_ARC,hourly; !- [J]
Output:Meter,Heating:EnergyTransfer:Zone:112_ARC,hourly; !- [J]
Output:Meter:Cumulative,Heating:EnergyTransfer:Zone:112_ARC,hourly; !- [J]
Output:Meter,General:Heating:EnergyTransfer:Zone:112_ARC,hourly; !- [J]
Output:Meter:Cumulative,General:Heating:EnergyTransfer:Zone:112_ARC,hourly; !- [J]
Output:Meter,Cooling:EnergyTransfer:Zone:112_ARC,hourly; !- [J]
Output:Meter:Cumulative,Cooling:EnergyTransfer:Zone:112_ARC,hourly; !- [J]
Output:Meter,General:Cooling:EnergyTransfer:Zone:112_ARC,hourly; !- [J]
Output:Meter:Cumulative,General:Cooling:EnergyTransfer:Zone:112_ARC,hourly; !- [J]
Output:Meter,EnergyTransfer:Zone:113_CAREER_SERVICES,hourly; !- [J]
Output:Meter:Cumulative,EnergyTransfer:Zone:113_CAREER_SERVICES,hourly; !- [J]
Output:Meter,Heating:EnergyTransfer:Zone:113_CAREER_SERVICES,hourly; !- [J]
Output:Meter:Cumulative,Heating:EnergyTransfer:Zone:113_CAREER_SERVICES,hourly; !- [J]
Output:Meter,General:Heating:EnergyTransfer:Zone:113_CAREER_SERVICES,hourly; !- [J]
Output:Meter:Cumulative,General:Heating:EnergyTransfer:Zone:113_CAREER_SERVICES,hourly; !- [J]
Output:Meter,Cooling:EnergyTransfer:Zone:113_CAREER_SERVICES,hourly; !- [J]
Output:Meter:Cumulative,Cooling:EnergyTransfer:Zone:113_CAREER_SERVICES,hourly; !- [J]
Output:Meter,General:Cooling:EnergyTransfer:Zone:113_CAREER_SERVICES,hourly; !- [J]
Output:Meter:Cumulative,General:Cooling:EnergyTransfer:Zone:113_CAREER_SERVICES,hourly; !- [J]
Output:Meter,EnergyTransfer:Zone:114_OFFICES,hourly; !- [J]
Output:Meter:Cumulative,EnergyTransfer:Zone:114_OFFICES,hourly; !- [J]
Output:Meter,Heating:EnergyTransfer:Zone:114_OFFICES,hourly; !- [J]
Output:Meter:Cumulative,Heating:EnergyTransfer:Zone:114_OFFICES,hourly; !- [J]
Output:Meter,General:Heating:EnergyTransfer:Zone:114_OFFICES,hourly; !- [J]
Output:Meter:Cumulative,General:Heating:EnergyTransfer:Zone:114_OFFICES,hourly; !- [J]
Output:Meter,Cooling:EnergyTransfer:Zone:114_OFFICES,hourly; !- [J]
Output:Meter:Cumulative,Cooling:EnergyTransfer:Zone:114_OFFICES,hourly; !- [J]
Output:Meter,General:Cooling:EnergyTransfer:Zone:114_OFFICES,hourly; !- [J]
Output:Meter:Cumulative,General:Cooling:EnergyTransfer:Zone:114_OFFICES,hourly; !- [J]
Output:Meter,EnergyTransfer:Zone:AUDITORIUMLOWER_0B49D193,hourly; !- [J]
Output:Meter:Cumulative,EnergyTransfer:Zone:AUDITORIUMLOWER_0B49D193,hourly; !- [J]
Output:Meter,Heating:EnergyTransfer:Zone:AUDITORIUMLOWER_0B49D193,hourly; !- [J]
Output:Meter:Cumulative,Heating:EnergyTransfer:Zone:AUDITORIUMLOWER_0B49D193,hourly; !- [J]
Output:Meter,General:Heating:EnergyTransfer:Zone:AUDITORIUMLOWER_0B49D193,hourly; !- [J]
Output:Meter:Cumulative,General:Heating:EnergyTransfer:Zone:AUDITORIUMLOWER_0B49D193,hourly; !- [J]
Output:Meter,Cooling:EnergyTransfer:Zone:AUDITORIUMLOWER_0B49D193,hourly; !- [J]
Output:Meter:Cumulative,Cooling:EnergyTransfer:Zone:AUDITORIUMLOWER_0B49D193,hourly; !- [J]
Output:Meter,General:Cooling:EnergyTransfer:Zone:AUDITORIUMLOWER_0B49D193,hourly; !- [J]
Output:Meter:Cumulative,General:Cooling:EnergyTransfer:Zone:AUDITORIUMLOWER_0B49D193,hourly; !- [J]
Output:Meter,EnergyTransfer:Zone:AUDITORIUM_LOBBY,hourly; !- [J]
Output:Meter:Cumulative,EnergyTransfer:Zone:AUDITORIUM_LOBBY,hourly; !- [J]
Output:Meter,Heating:EnergyTransfer:Zone:AUDITORIUM_LOBBY,hourly; !- [J]
Output:Meter:Cumulative,Heating:EnergyTransfer:Zone:AUDITORIUM_LOBBY,hourly; !- [J]
Output:Meter,General:Heating:EnergyTransfer:Zone:AUDITORIUM_LOBBY,hourly; !- [J]
Output:Meter:Cumulative,General:Heating:EnergyTransfer:Zone:AUDITORIUM_LOBBY,hourly; !- [J]
Output:Meter,Cooling:EnergyTransfer:Zone:AUDITORIUM_LOBBY,hourly; !- [J]
Output:Meter:Cumulative,Cooling:EnergyTransfer:Zone:AUDITORIUM_LOBBY,hourly; !- [J]
Output:Meter,General:Cooling:EnergyTransfer:Zone:AUDITORIUM_LOBBY,hourly; !- [J]
Output:Meter:Cumulative,General:Cooling:EnergyTransfer:Zone:AUDITORIUM_LOBBY,hourly; !- [J]
Output:Meter,EnergyTransfer:Zone:BOGDINING_E25F401A,hourly; !- [J]
Output:Meter:Cumulative,EnergyTransfer:Zone:BOGDINING_E25F401A,hourly; !- [J]
Output:Meter,Heating:EnergyTransfer:Zone:BOGDINING_E25F401A,hourly; !- [J]
Output:Meter:Cumulative,Heating:EnergyTransfer:Zone:BOGDINING_E25F401A,hourly; !- [J]
Output:Meter,General:Heating:EnergyTransfer:Zone:BOGDINING_E25F401A,hourly; !- [J]
Output:Meter:Cumulative,General:Heating:EnergyTransfer:Zone:BOGDINING_E25F401A,hourly; !- [J]
Output:Meter,Cooling:EnergyTransfer:Zone:BOGDINING_E25F401A,hourly; !- [J]
Output:Meter:Cumulative,Cooling:EnergyTransfer:Zone:BOGDINING_E25F401A,hourly; !- [J]
Output:Meter,General:Cooling:EnergyTransfer:Zone:BOGDINING_E25F401A,hourly; !- [J]
Output:Meter:Cumulative,General:Cooling:EnergyTransfer:Zone:BOGDINING_E25F401A,hourly; !- [J]
Output:Meter,EnergyTransfer:Zone:BOGPLAY_1_B863644B,hourly; !- [J]
Output:Meter:Cumulative,EnergyTransfer:Zone:BOGPLAY_1_B863644B,hourly; !- [J]
Output:Meter,Heating:EnergyTransfer:Zone:BOGPLAY_1_B863644B,hourly; !- [J]
Output:Meter:Cumulative,Heating:EnergyTransfer:Zone:BOGPLAY_1_B863644B,hourly; !- [J]
Output:Meter,General:Heating:EnergyTransfer:Zone:BOGPLAY_1_B863644B,hourly; !- [J]
Output:Meter:Cumulative,General:Heating:EnergyTransfer:Zone:BOGPLAY_1_B863644B,hourly; !- [J]
Output:Meter,Cooling:EnergyTransfer:Zone:BOGPLAY_1_B863644B,hourly; !- [J]
Output:Meter:Cumulative,Cooling:EnergyTransfer:Zone:BOGPLAY_1_B863644B,hourly; !- [J]
Output:Meter,General:Cooling:EnergyTransfer:Zone:BOGPLAY_1_B863644B,hourly; !- [J]
Output:Meter:Cumulative,General:Cooling:EnergyTransfer:Zone:BOGPLAY_1_B863644B,hourly; !- [J]
Output:Meter,EnergyTransfer:Zone:BOGPLAY_1_D1F076F9,hourly; !- [J]
Output:Meter:Cumulative,EnergyTransfer:Zone:BOGPLAY_1_D1F076F9,hourly; !- [J]
Output:Meter,Heating:EnergyTransfer:Zone:BOGPLAY_1_D1F076F9,hourly; !- [J]
Output:Meter:Cumulative,Heating:EnergyTransfer:Zone:BOGPLAY_1_D1F076F9,hourly; !- [J]
Output:Meter,General:Heating:EnergyTransfer:Zone:BOGPLAY_1_D1F076F9,hourly; !- [J]
Output:Meter:Cumulative,General:Heating:EnergyTransfer:Zone:BOGPLAY_1_D1F076F9,hourly; !- [J]
Output:Meter,Cooling:EnergyTransfer:Zone:BOGPLAY_1_D1F076F9,hourly; !- [J]
Output:Meter:Cumulative,Cooling:EnergyTransfer:Zone:BOGPLAY_1_D1F076F9,hourly; !- [J]
Output:Meter,General:Cooling:EnergyTransfer:Zone:BOGPLAY_1_D1F076F9,hourly; !- [J]
Output:Meter:Cumulative,General:Cooling:EnergyTransfer:Zone:BOGPLAY_1_D1F076F9,hourly; !- [J]
Output:Meter,EnergyTransfer:Zone:BOGPLAY_2_4B3AE9FE,hourly; !- [J]
Output:Meter:Cumulative,EnergyTransfer:Zone:BOGPLAY_2_4B3AE9FE,hourly; !- [J]
Output:Meter,Heating:EnergyTransfer:Zone:BOGPLAY_2_4B3AE9FE,hourly; !- [J]
Output:Meter:Cumulative,Heating:EnergyTransfer:Zone:BOGPLAY_2_4B3AE9FE,hourly; !- [J]
Output:Meter,General:Heating:EnergyTransfer:Zone:BOGPLAY_2_4B3AE9FE,hourly; !- [J]
Output:Meter:Cumulative,General:Heating:EnergyTransfer:Zone:BOGPLAY_2_4B3AE9FE,hourly; !- [J]
Output:Meter,Cooling:EnergyTransfer:Zone:BOGPLAY_2_4B3AE9FE,hourly; !- [J]
Output:Meter:Cumulative,Cooling:EnergyTransfer:Zone:BOGPLAY_2_4B3AE9FE,hourly; !- [J]
Output:Meter,General:Cooling:EnergyTransfer:Zone:BOGPLAY_2_4B3AE9FE,hourly; !- [J]
Output:Meter:Cumulative,General:Cooling:EnergyTransfer:Zone:BOGPLAY_2_4B3AE9FE,hourly; !- [J]
Output:Meter,EnergyTransfer:Zone:BOGPLAY_2_D145E14C,hourly; !- [J]
Output:Meter:Cumulative,EnergyTransfer:Zone:BOGPLAY_2_D145E14C,hourly; !- [J]
Output:Meter,Heating:EnergyTransfer:Zone:BOGPLAY_2_D145E14C,hourly; !- [J]
Output:Meter:Cumulative,Heating:EnergyTransfer:Zone:BOGPLAY_2_D145E14C,hourly; !- [J]
Output:Meter,General:Heating:EnergyTransfer:Zone:BOGPLAY_2_D145E14C,hourly; !- [J]
Output:Meter:Cumulative,General:Heating:EnergyTransfer:Zone:BOGPLAY_2_D145E14C,hourly; !- [J]
Output:Meter,Cooling:EnergyTransfer:Zone:BOGPLAY_2_D145E14C,hourly; !- [J]
Output:Meter:Cumulative,Cooling:EnergyTransfer:Zone:BOGPLAY_2_D145E14C,hourly; !- [J]
Output:Meter,General:Cooling:EnergyTransfer:Zone:BOGPLAY_2_D145E14C,hourly; !- [J]
Output:Meter:Cumulative,General:Cooling:EnergyTransfer:Zone:BOGPLAY_2_D145E14C,hourly; !- [J]
Output:Meter,EnergyTransfer:Zone:CLASSROOM_1_90B605A9,hourly; !- [J]
Output:Meter:Cumulative,EnergyTransfer:Zone:CLASSROOM_1_90B605A9,hourly; !- [J]
Output:Meter,Heating:EnergyTransfer:Zone:CLASSROOM_1_90B605A9,hourly; !- [J]
Output:Meter:Cumulative,Heating:EnergyTransfer:Zone:CLASSROOM_1_90B605A9,hourly; !- [J]
Output:Meter,General:Heating:EnergyTransfer:Zone:CLASSROOM_1_90B605A9,hourly; !- [J]
Output:Meter:Cumulative,General:Heating:EnergyTransfer:Zone:CLASSROOM_1_90B605A9,hourly; !- [J]
Output:Meter,Cooling:EnergyTransfer:Zone:CLASSROOM_1_90B605A9,hourly; !- [J]
Output:Meter:Cumulative,Cooling:EnergyTransfer:Zone:CLASSROOM_1_90B605A9,hourly; !- [J]
Output:Meter,General:Cooling:EnergyTransfer:Zone:CLASSROOM_1_90B605A9,hourly; !- [J]
Output:Meter:Cumulative,General:Cooling:EnergyTransfer:Zone:CLASSROOM_1_90B605A9,hourly; !- [J]
Output:Meter,EnergyTransfer:Zone:CLASSROOM_2_ECCCF8B8,hourly; !- [J]
Output:Meter:Cumulative,EnergyTransfer:Zone:CLASSROOM_2_ECCCF8B8,hourly; !- [J]
Output:Meter,Heating:EnergyTransfer:Zone:CLASSROOM_2_ECCCF8B8,hourly; !- [J]
Output:Meter:Cumulative,Heating:EnergyTransfer:Zone:CLASSROOM_2_ECCCF8B8,hourly; !- [J]
Output:Meter,General:Heating:EnergyTransfer:Zone:CLASSROOM_2_ECCCF8B8,hourly; !- [J]
Output:Meter:Cumulative,General:Heating:EnergyTransfer:Zone:CLASSROOM_2_ECCCF8B8,hourly; !- [J]
Output:Meter,Cooling:EnergyTransfer:Zone:CLASSROOM_2_ECCCF8B8,hourly; !- [J]
Output:Meter:Cumulative,Cooling:EnergyTransfer:Zone:CLASSROOM_2_ECCCF8B8,hourly; !- [J]
Output:Meter,General:Cooling:EnergyTransfer:Zone:CLASSROOM_2_ECCCF8B8,hourly; !- [J]
Output:Meter:Cumulative,General:Cooling:EnergyTransfer:Zone:CLASSROOM_2_ECCCF8B8,hourly; !- [J]
Output:Meter,EnergyTransfer:Zone:CORRIDOR_1_FA1FE4C1,hourly; !- [J]
Output:Meter:Cumulative,EnergyTransfer:Zone:CORRIDOR_1_FA1FE4C1,hourly; !- [J]
Output:Meter,Heating:EnergyTransfer:Zone:CORRIDOR_1_FA1FE4C1,hourly; !- [J]
Output:Meter:Cumulative,Heating:EnergyTransfer:Zone:CORRIDOR_1_FA1FE4C1,hourly; !- [J]
Output:Meter,General:Heating:EnergyTransfer:Zone:CORRIDOR_1_FA1FE4C1,hourly; !- [J]
Output:Meter:Cumulative,General:Heating:EnergyTransfer:Zone:CORRIDOR_1_FA1FE4C1,hourly; !- [J]
Output:Meter,Cooling:EnergyTransfer:Zone:CORRIDOR_1_FA1FE4C1,hourly; !- [J]
Output:Meter:Cumulative,Cooling:EnergyTransfer:Zone:CORRIDOR_1_FA1FE4C1,hourly; !- [J]
Output:Meter,General:Cooling:EnergyTransfer:Zone:CORRIDOR_1_FA1FE4C1,hourly; !- [J]
Output:Meter:Cumulative,General:Cooling:EnergyTransfer:Zone:CORRIDOR_1_FA1FE4C1,hourly; !- [J]
Output:Meter,EnergyTransfer:Zone:CORRIDOR_2_CFBEC8AA,hourly; !- [J]
Output:Meter:Cumulative,EnergyTransfer:Zone:CORRIDOR_2_CFBEC8AA,hourly; !- [J]
Output:Meter,Heating:EnergyTransfer:Zone:CORRIDOR_2_CFBEC8AA,hourly; !- [J]
Output:Meter:Cumulative,Heating:EnergyTransfer:Zone:CORRIDOR_2_CFBEC8AA,hourly; !- [J]
Output:Meter,General:Heating:EnergyTransfer:Zone:CORRIDOR_2_CFBEC8AA,hourly; !- [J]
Output:Meter:Cumulative,General:Heating:EnergyTransfer:Zone:CORRIDOR_2_CFBEC8AA,hourly; !- [J]
Output:Meter,Cooling:EnergyTransfer:Zone:CORRIDOR_2_CFBEC8AA,hourly; !- [J]
Output:Meter:Cumulative,Cooling:EnergyTransfer:Zone:CORRIDOR_2_CFBEC8AA,hourly; !- [J]
Output:Meter,General:Cooling:EnergyTransfer:Zone:CORRIDOR_2_CFBEC8AA,hourly; !- [J]
Output:Meter:Cumulative,General:Cooling:EnergyTransfer:Zone:CORRIDOR_2_CFBEC8AA,hourly; !- [J]
Output:Meter,EnergyTransfer:Zone:CORRIDOR_3_7621FA0C,hourly; !- [J]
Output:Meter:Cumulative,EnergyTransfer:Zone:CORRIDOR_3_7621FA0C,hourly; !- [J]
Output:Meter,Heating:EnergyTransfer:Zone:CORRIDOR_3_7621FA0C,hourly; !- [J]
Output:Meter:Cumulative,Heating:EnergyTransfer:Zone:CORRIDOR_3_7621FA0C,hourly; !- [J]
Output:Meter,General:Heating:EnergyTransfer:Zone:CORRIDOR_3_7621FA0C,hourly; !- [J]
Output:Meter:Cumulative,General:Heating:EnergyTransfer:Zone:CORRIDOR_3_7621FA0C,hourly; !- [J]
Output:Meter,Cooling:EnergyTransfer:Zone:CORRIDOR_3_7621FA0C,hourly; !- [J]
Output:Meter:Cumulative,Cooling:EnergyTransfer:Zone:CORRIDOR_3_7621FA0C,hourly; !- [J]
Output:Meter,General:Cooling:EnergyTransfer:Zone:CORRIDOR_3_7621FA0C,hourly; !- [J]
Output:Meter:Cumulative,General:Cooling:EnergyTransfer:Zone:CORRIDOR_3_7621FA0C,hourly; !- [J]
Output:Meter,EnergyTransfer:Zone:CORRIDOR_4_9B747DDD,hourly; !- [J]
Output:Meter:Cumulative,EnergyTransfer:Zone:CORRIDOR_4_9B747DDD,hourly; !- [J]
Output:Meter,Heating:EnergyTransfer:Zone:CORRIDOR_4_9B747DDD,hourly; !- [J]
Output:Meter:Cumulative,Heating:EnergyTransfer:Zone:CORRIDOR_4_9B747DDD,hourly; !- [J]
Output:Meter,General:Heating:EnergyTransfer:Zone:CORRIDOR_4_9B747DDD,hourly; !- [J]
Output:Meter:Cumulative,General:Heating:EnergyTransfer:Zone:CORRIDOR_4_9B747DDD,hourly; !- [J]
Output:Meter,Cooling:EnergyTransfer:Zone:CORRIDOR_4_9B747DDD,hourly; !- [J]
Output:Meter:Cumulative,Cooling:EnergyTransfer:Zone:CORRIDOR_4_9B747DDD,hourly; !- [J]
Output:Meter,General:Cooling:EnergyTransfer:Zone:CORRIDOR_4_9B747DDD,hourly; !- [J]
Output:Meter:Cumulative,General:Cooling:EnergyTransfer:Zone:CORRIDOR_4_9B747DDD,hourly; !- [J]
Output:Meter,EnergyTransfer:Zone:EAST_CORRIDOR,hourly; !- [J]
Output:Meter:Cumulative,EnergyTransfer:Zone:EAST_CORRIDOR,hourly; !- [J]
Output:Meter,Heating:EnergyTransfer:Zone:EAST_CORRIDOR,hourly; !- [J]
Output:Meter:Cumulative,Heating:EnergyTransfer:Zone:EAST_CORRIDOR,hourly; !- [J]
Output:Meter,General:Heating:EnergyTransfer:Zone:EAST_CORRIDOR,hourly; !- [J]
Output:Meter:Cumulative,General:Heating:EnergyTransfer:Zone:EAST_CORRIDOR,hourly; !- [J]
Output:Meter,Cooling:EnergyTransfer:Zone:EAST_CORRIDOR,hourly; !- [J]
Output:Meter:Cumulative,Cooling:EnergyTransfer:Zone:EAST_CORRIDOR,hourly; !- [J]
Output:Meter,General:Cooling:EnergyTransfer:Zone:EAST_CORRIDOR,hourly; !- [J]
Output:Meter:Cumulative,General:Cooling:EnergyTransfer:Zone:EAST_CORRIDOR,hourly; !- [J]
Output:Meter,EnergyTransfer:Zone:EAST_SMALL_CORRIDOR,hourly; !- [J]
Output:Meter:Cumulative,EnergyTransfer:Zone:EAST_SMALL_CORRIDOR,hourly; !- [J]
Output:Meter,Heating:EnergyTransfer:Zone:EAST_SMALL_CORRIDOR,hourly; !- [J]
Output:Meter:Cumulative,Heating:EnergyTransfer:Zone:EAST_SMALL_CORRIDOR,hourly; !- [J]
Output:Meter,General:Heating:EnergyTransfer:Zone:EAST_SMALL_CORRIDOR,hourly; !- [J]
Output:Meter:Cumulative,General:Heating:EnergyTransfer:Zone:EAST_SMALL_CORRIDOR,hourly; !- [J]
Output:Meter,Cooling:EnergyTransfer:Zone:EAST_SMALL_CORRIDOR,hourly; !- [J]
Output:Meter:Cumulative,Cooling:EnergyTransfer:Zone:EAST_SMALL_CORRIDOR,hourly; !- [J]
Output:Meter,General:Cooling:EnergyTransfer:Zone:EAST_SMALL_CORRIDOR,hourly; !- [J]
Output:Meter:Cumulative,General:Cooling:EnergyTransfer:Zone:EAST_SMALL_CORRIDOR,hourly; !- [J]
Output:Meter,EnergyTransfer:Zone:KITCHEN_1_55B9A759,hourly; !- [J]
Output:Meter:Cumulative,EnergyTransfer:Zone:KITCHEN_1_55B9A759,hourly; !- [J]
Output:Meter,Heating:EnergyTransfer:Zone:KITCHEN_1_55B9A759,hourly; !- [J]
Output:Meter:Cumulative,Heating:EnergyTransfer:Zone:KITCHEN_1_55B9A759,hourly; !- [J]
Output:Meter,General:Heating:EnergyTransfer:Zone:KITCHEN_1_55B9A759,hourly; !- [J]
Output:Meter:Cumulative,General:Heating:EnergyTransfer:Zone:KITCHEN_1_55B9A759,hourly; !- [J]
Output:Meter,Cooling:EnergyTransfer:Zone:KITCHEN_1_55B9A759,hourly; !- [J]
Output:Meter:Cumulative,Cooling:EnergyTransfer:Zone:KITCHEN_1_55B9A759,hourly; !- [J]
Output:Meter,General:Cooling:EnergyTransfer:Zone:KITCHEN_1_55B9A759,hourly; !- [J]
Output:Meter:Cumulative,General:Cooling:EnergyTransfer:Zone:KITCHEN_1_55B9A759,hourly; !- [J]
Output:Meter,EnergyTransfer:Zone:KITCHEN_2_B940211D,hourly; !- [J]
Output:Meter:Cumulative,EnergyTransfer:Zone:KITCHEN_2_B940211D,hourly; !- [J]
Output:Meter,Heating:EnergyTransfer:Zone:KITCHEN_2_B940211D,hourly; !- [J]
Output:Meter:Cumulative,Heating:EnergyTransfer:Zone:KITCHEN_2_B940211D,hourly; !- [J]
Output:Meter,General:Heating:EnergyTransfer:Zone:KITCHEN_2_B940211D,hourly; !- [J]
Output:Meter:Cumulative,General:Heating:EnergyTransfer:Zone:KITCHEN_2_B940211D,hourly; !- [J]
Output:Meter,Cooling:EnergyTransfer:Zone:KITCHEN_2_B940211D,hourly; !- [J]
Output:Meter:Cumulative,Cooling:EnergyTransfer:Zone:KITCHEN_2_B940211D,hourly; !- [J]
Output:Meter,General:Cooling:EnergyTransfer:Zone:KITCHEN_2_B940211D,hourly; !- [J]
Output:Meter:Cumulative,General:Cooling:EnergyTransfer:Zone:KITCHEN_2_B940211D,hourly; !- [J]
Output:Meter,EnergyTransfer:Zone:KITCHEN_3_3E9A0FB8,hourly; !- [J]
Output:Meter:Cumulative,EnergyTransfer:Zone:KITCHEN_3_3E9A0FB8,hourly; !- [J]
Output:Meter,Heating:EnergyTransfer:Zone:KITCHEN_3_3E9A0FB8,hourly; !- [J]
Output:Meter:Cumulative,Heating:EnergyTransfer:Zone:KITCHEN_3_3E9A0FB8,hourly; !- [J]
Output:Meter,General:Heating:EnergyTransfer:Zone:KITCHEN_3_3E9A0FB8,hourly; !- [J]
Output:Meter:Cumulative,General:Heating:EnergyTransfer:Zone:KITCHEN_3_3E9A0FB8,hourly; !- [J]
Output:Meter,Cooling:EnergyTransfer:Zone:KITCHEN_3_3E9A0FB8,hourly; !- [J]
Output:Meter:Cumulative,Cooling:EnergyTransfer:Zone:KITCHEN_3_3E9A0FB8,hourly; !- [J]
Output:Meter,General:Cooling:EnergyTransfer:Zone:KITCHEN_3_3E9A0FB8,hourly; !- [J]
Output:Meter:Cumulative,General:Cooling:EnergyTransfer:Zone:KITCHEN_3_3E9A0FB8,hourly; !- [J]
Output:Meter,EnergyTransfer:Zone:MECH_1_40A96879,hourly; !- [J]
Output:Meter:Cumulative,EnergyTransfer:Zone:MECH_1_40A96879,hourly; !- [J]
Output:Meter,Heating:EnergyTransfer:Zone:MECH_1_40A96879,hourly; !- [J]
Output:Meter:Cumulative,Heating:EnergyTransfer:Zone:MECH_1_40A96879,hourly; !- [J]
Output:Meter,General:Heating:EnergyTransfer:Zone:MECH_1_40A96879,hourly; !- [J]
Output:Meter:Cumulative,General:Heating:EnergyTransfer:Zone:MECH_1_40A96879,hourly; !- [J]
Output:Meter,Cooling:EnergyTransfer:Zone:MECH_1_40A96879,hourly; !- [J]
Output:Meter:Cumulative,Cooling:EnergyTransfer:Zone:MECH_1_40A96879,hourly; !- [J]
Output:Meter,General:Cooling:EnergyTransfer:Zone:MECH_1_40A96879,hourly; !- [J]
Output:Meter:Cumulative,General:Cooling:EnergyTransfer:Zone:MECH_1_40A96879,hourly; !- [J]
Output:Meter,EnergyTransfer:Zone:MECH_2_C6ABCC9A,hourly; !- [J]
Output:Meter:Cumulative,EnergyTransfer:Zone:MECH_2_C6ABCC9A,hourly; !- [J]
Output:Meter,Heating:EnergyTransfer:Zone:MECH_2_C6ABCC9A,hourly; !- [J]
Output:Meter:Cumulative,Heating:EnergyTransfer:Zone:MECH_2_C6ABCC9A,hourly; !- [J]
Output:Meter,General:Heating:EnergyTransfer:Zone:MECH_2_C6ABCC9A,hourly; !- [J]
Output:Meter:Cumulative,General:Heating:EnergyTransfer:Zone:MECH_2_C6ABCC9A,hourly; !- [J]
Output:Meter,Cooling:EnergyTransfer:Zone:MECH_2_C6ABCC9A,hourly; !- [J]
Output:Meter:Cumulative,Cooling:EnergyTransfer:Zone:MECH_2_C6ABCC9A,hourly; !- [J]
Output:Meter,General:Cooling:EnergyTransfer:Zone:MECH_2_C6ABCC9A,hourly; !- [J]
Output:Meter:Cumulative,General:Cooling:EnergyTransfer:Zone:MECH_2_C6ABCC9A,hourly; !- [J]
Output:Meter,EnergyTransfer:Zone:MECH_3_6E799E0F,hourly; !- [J]
Output:Meter:Cumulative,EnergyTransfer:Zone:MECH_3_6E799E0F,hourly; !- [J]
Output:Meter,Heating:EnergyTransfer:Zone:MECH_3_6E799E0F,hourly; !- [J]
Output:Meter:Cumulative,Heating:EnergyTransfer:Zone:MECH_3_6E799E0F,hourly; !- [J]
Output:Meter,General:Heating:EnergyTransfer:Zone:MECH_3_6E799E0F,hourly; !- [J]
Output:Meter:Cumulative,General:Heating:EnergyTransfer:Zone:MECH_3_6E799E0F,hourly; !- [J]
Output:Meter,Cooling:EnergyTransfer:Zone:MECH_3_6E799E0F,hourly; !- [J]
Output:Meter:Cumulative,Cooling:EnergyTransfer:Zone:MECH_3_6E799E0F,hourly; !- [J]
Output:Meter,General:Cooling:EnergyTransfer:Zone:MECH_3_6E799E0F,hourly; !- [J]
Output:Meter:Cumulative,General:Cooling:EnergyTransfer:Zone:MECH_3_6E799E0F,hourly; !- [J]
Output:Meter,EnergyTransfer:Zone:MECH_4_99985F88,hourly; !- [J]
Output:Meter:Cumulative,EnergyTransfer:Zone:MECH_4_99985F88,hourly; !- [J]
Output:Meter,Heating:EnergyTransfer:Zone:MECH_4_99985F88,hourly; !- [J]
Output:Meter:Cumulative,Heating:EnergyTransfer:Zone:MECH_4_99985F88,hourly; !- [J]
Output:Meter,General:Heating:EnergyTransfer:Zone:MECH_4_99985F88,hourly; !- [J]
Output:Meter:Cumulative,General:Heating:EnergyTransfer:Zone:MECH_4_99985F88,hourly; !- [J]
Output:Meter,Cooling:EnergyTransfer:Zone:MECH_4_99985F88,hourly; !- [J]
Output:Meter:Cumulative,Cooling:EnergyTransfer:Zone:MECH_4_99985F88,hourly; !- [J]
Output:Meter,General:Cooling:EnergyTransfer:Zone:MECH_4_99985F88,hourly; !- [J]
Output:Meter:Cumulative,General:Cooling:EnergyTransfer:Zone:MECH_4_99985F88,hourly; !- [J]
Output:Meter,EnergyTransfer:Zone:NORTH_HALL,hourly; !- [J]
Output:Meter:Cumulative,EnergyTransfer:Zone:NORTH_HALL,hourly; !- [J]
Output:Meter,Heating:EnergyTransfer:Zone:NORTH_HALL,hourly; !- [J]
Output:Meter:Cumulative,Heating:EnergyTransfer:Zone:NORTH_HALL,hourly; !- [J]
Output:Meter,General:Heating:EnergyTransfer:Zone:NORTH_HALL,hourly; !- [J]
Output:Meter:Cumulative,General:Heating:EnergyTransfer:Zone:NORTH_HALL,hourly; !- [J]
Output:Meter,Cooling:EnergyTransfer:Zone:NORTH_HALL,hourly; !- [J]
Output:Meter:Cumulative,Cooling:EnergyTransfer:Zone:NORTH_HALL,hourly; !- [J]
Output:Meter,General:Cooling:EnergyTransfer:Zone:NORTH_HALL,hourly; !- [J]
Output:Meter:Cumulative,General:Cooling:EnergyTransfer:Zone:NORTH_HALL,hourly; !- [J]
Output:Meter,EnergyTransfer:Zone:OFFICE_1_B1424685,hourly; !- [J]
Output:Meter:Cumulative,EnergyTransfer:Zone:OFFICE_1_B1424685,hourly; !- [J]
Output:Meter,Heating:EnergyTransfer:Zone:OFFICE_1_B1424685,hourly; !- [J]
Output:Meter:Cumulative,Heating:EnergyTransfer:Zone:OFFICE_1_B1424685,hourly; !- [J]
Output:Meter,General:Heating:EnergyTransfer:Zone:OFFICE_1_B1424685,hourly; !- [J]
Output:Meter:Cumulative,General:Heating:EnergyTransfer:Zone:OFFICE_1_B1424685,hourly; !- [J]
Output:Meter,Cooling:EnergyTransfer:Zone:OFFICE_1_B1424685,hourly; !- [J]
Output:Meter:Cumulative,Cooling:EnergyTransfer:Zone:OFFICE_1_B1424685,hourly; !- [J]
Output:Meter,General:Cooling:EnergyTransfer:Zone:OFFICE_1_B1424685,hourly; !- [J]
Output:Meter:Cumulative,General:Cooling:EnergyTransfer:Zone:OFFICE_1_B1424685,hourly; !- [J]
Output:Meter,EnergyTransfer:Zone:OFFICE_2_37CC8413,hourly; !- [J]
Output:Meter:Cumulative,EnergyTransfer:Zone:OFFICE_2_37CC8413,hourly; !- [J]
Output:Meter,Heating:EnergyTransfer:Zone:OFFICE_2_37CC8413,hourly; !- [J]
Output:Meter:Cumulative,Heating:EnergyTransfer:Zone:OFFICE_2_37CC8413,hourly; !- [J]
Output:Meter,General:Heating:EnergyTransfer:Zone:OFFICE_2_37CC8413,hourly; !- [J]
Output:Meter:Cumulative,General:Heating:EnergyTransfer:Zone:OFFICE_2_37CC8413,hourly; !- [J]
Output:Meter,Cooling:EnergyTransfer:Zone:OFFICE_2_37CC8413,hourly; !- [J]
Output:Meter:Cumulative,Cooling:EnergyTransfer:Zone:OFFICE_2_37CC8413,hourly; !- [J]
Output:Meter,General:Cooling:EnergyTransfer:Zone:OFFICE_2_37CC8413,hourly; !- [J]
Output:Meter:Cumulative,General:Cooling:EnergyTransfer:Zone:OFFICE_2_37CC8413,hourly; !- [J]
Output:Meter,EnergyTransfer:Zone:OFFICE_3_93B2C9FF,hourly; !- [J]
Output:Meter:Cumulative,EnergyTransfer:Zone:OFFICE_3_93B2C9FF,hourly; !- [J]
Output:Meter,Heating:EnergyTransfer:Zone:OFFICE_3_93B2C9FF,hourly; !- [J]
Output:Meter:Cumulative,Heating:EnergyTransfer:Zone:OFFICE_3_93B2C9FF,hourly; !- [J]
Output:Meter,General:Heating:EnergyTransfer:Zone:OFFICE_3_93B2C9FF,hourly; !- [J]
Output:Meter:Cumulative,General:Heating:EnergyTransfer:Zone:OFFICE_3_93B2C9FF,hourly; !- [J]
Output:Meter,Cooling:EnergyTransfer:Zone:OFFICE_3_93B2C9FF,hourly; !- [J]
Output:Meter:Cumulative,Cooling:EnergyTransfer:Zone:OFFICE_3_93B2C9FF,hourly; !- [J]
Output:Meter,General:Cooling:EnergyTransfer:Zone:OFFICE_3_93B2C9FF,hourly; !- [J]
Output:Meter:Cumulative,General:Cooling:EnergyTransfer:Zone:OFFICE_3_93B2C9FF,hourly; !- [J]
Output:Meter,EnergyTransfer:Zone:OFFICE_4_3DD7EBAB,hourly; !- [J]
Output:Meter:Cumulative,EnergyTransfer:Zone:OFFICE_4_3DD7EBAB,hourly; !- [J]
Output:Meter,Heating:EnergyTransfer:Zone:OFFICE_4_3DD7EBAB,hourly; !- [J]
Output:Meter:Cumulative,Heating:EnergyTransfer:Zone:OFFICE_4_3DD7EBAB,hourly; !- [J]
Output:Meter,General:Heating:EnergyTransfer:Zone:OFFICE_4_3DD7EBAB,hourly; !- [J]
Output:Meter:Cumulative,General:Heating:EnergyTransfer:Zone:OFFICE_4_3DD7EBAB,hourly; !- [J]
Output:Meter,Cooling:EnergyTransfer:Zone:OFFICE_4_3DD7EBAB,hourly; !- [J]
Output:Meter:Cumulative,Cooling:EnergyTransfer:Zone:OFFICE_4_3DD7EBAB,hourly; !- [J]
Output:Meter,General:Cooling:EnergyTransfer:Zone:OFFICE_4_3DD7EBAB,hourly; !- [J]
Output:Meter:Cumulative,General:Cooling:EnergyTransfer:Zone:OFFICE_4_3DD7EBAB,hourly; !- [J]
Output:Meter,EnergyTransfer:Zone:OFFICE_5_682148B2,hourly; !- [J]
Output:Meter:Cumulative,EnergyTransfer:Zone:OFFICE_5_682148B2,hourly; !- [J]
Output:Meter,Heating:EnergyTransfer:Zone:OFFICE_5_682148B2,hourly; !- [J]
Output:Meter:Cumulative,Heating:EnergyTransfer:Zone:OFFICE_5_682148B2,hourly; !- [J]
Output:Meter,General:Heating:EnergyTransfer:Zone:OFFICE_5_682148B2,hourly; !- [J]
Output:Meter:Cumulative,General:Heating:EnergyTransfer:Zone:OFFICE_5_682148B2,hourly; !- [J]
Output:Meter,Cooling:EnergyTransfer:Zone:OFFICE_5_682148B2,hourly; !- [J]
Output:Meter:Cumulative,Cooling:EnergyTransfer:Zone:OFFICE_5_682148B2,hourly; !- [J]
[...]
Output:Meter:Cumulative,General:Heating:EnergyTransfer:Zone:RESTROOMS,hourly; !- [J]
Output:Meter,Cooling:EnergyTransfer:Zone:RESTROOMS,hourly; !- [J]
Output:Meter:Cumulative,Cooling:EnergyTransfer:Zone:RESTROOMS,hourly; !- [J]
Output:Meter,General:Cooling:EnergyTransfer:Zone:RESTROOMS,hourly; !- [J]
Output:Meter:Cumulative,General:Cooling:EnergyTransfer:Zone:RESTROOMS,hourly; !- [J]
Output:Meter,EnergyTransfer:Zone:RESTROOM_1_404313B9,hourly; !- [J]
Output:Meter:Cumulative,EnergyTransfer:Zone:RESTROOM_1_404313B9,hourly; !- [J]
Output:Meter,Heating:EnergyTransfer:Zone:RESTROOM_1_404313B9,hourly; !- [J]
Output:Meter:Cumulative,Heating:EnergyTransfer:Zone:RESTROOM_1_404313B9,hourly; !- [J]
Output:Meter,General:Heating:EnergyTransfer:Zone:RESTROOM_1_404313B9,hourly; !- [J]
Output:Meter:Cumulative,General:Heating:EnergyTransfer:Zone:RESTROOM_1_404313B9,hourly; !- [J]
Output:Meter,Cooling:EnergyTransfer:Zone:RESTROOM_1_404313B9,hourly; !- [J]
Output:Meter:Cumulative,Cooling:EnergyTransfer:Zone:RESTROOM_1_404313B9,hourly; !- [J]
Output:Meter,General:Cooling:EnergyTransfer:Zone:RESTROOM_1_404313B9,hourly; !- [J]
Output:Meter:Cumulative,General:Cooling:EnergyTransfer:Zone:RESTROOM_1_404313B9,hourly; !- [J]
Output:Meter,EnergyTransfer:Zone:RESTROOM_2_A377B4B3,hourly; !- [J]
Output:Meter:Cumulative,EnergyTransfer:Zone:RESTROOM_2_A377B4B3,hourly; !- [J]
Output:Meter,Heating:EnergyTransfer:Zone:RESTROOM_2_A377B4B3,hourly; !- [J]
Output:Meter:Cumulative,Heating:EnergyTransfer:Zone:RESTROOM_2_A377B4B3,hourly; !- [J]
Output:Meter,General:Heating:EnergyTransfer:Zone:RESTROOM_2_A377B4B3,hourly; !- [J]
Output:Meter:Cumulative,General:Heating:EnergyTransfer:Zone:RESTROOM_2_A377B4B3,hourly; !- [J]
Output:Meter,Cooling:EnergyTransfer:Zone:RESTROOM_2_A377B4B3,hourly; !- [J]
Output:Meter:Cumulative,Cooling:EnergyTransfer:Zone:RESTROOM_2_A377B4B3,hourly; !- [J]
Output:Meter,General:Cooling:EnergyTransfer:Zone:RESTROOM_2_A377B4B3,hourly; !- [J]
Output:Meter:Cumulative,General:Cooling:EnergyTransfer:Zone:RESTROOM_2_A377B4B3,hourly; !- [J]
Output:Meter,EnergyTransfer:Zone:RESTROOM_3_C201E5F7,hourly; !- [J]
Output:Meter:Cumulative,EnergyTransfer:Zone:RESTROOM_3_C201E5F7,hourly; !- [J]
Output:Meter,Heating:EnergyTransfer:Zone:RESTROOM_3_C201E5F7,hourly; !- [J]
Output:Meter:Cumulative,Heating:EnergyTransfer:Zone:RESTROOM_3_C201E5F7,hourly; !- [J]
Output:Meter,General:Heating:EnergyTransfer:Zone:RESTROOM_3_C201E5F7,hourly; !- [J]
Output:Meter:Cumulative,General:Heating:EnergyTransfer:Zone:RESTROOM_3_C201E5F7,hourly; !- [J]
Output:Meter,Cooling:EnergyTransfer:Zone:RESTROOM_3_C201E5F7,hourly; !- [J]
Output:Meter:Cumulative,Cooling:EnergyTransfer:Zone:RESTROOM_3_C201E5F7,hourly; !- [J]
Output:Meter,General:Cooling:EnergyTransfer:Zone:RESTROOM_3_C201E5F7,hourly; !- [J]
Output:Meter:Cumulative,General:Cooling:EnergyTransfer:Zone:RESTROOM_3_C201E5F7,hourly; !- [J]
Output:Meter,EnergyTransfer:Zone:RESTROOM_4_33BABDA2,hourly; !- [J]
Output:Meter:Cumulative,EnergyTransfer:Zone:RESTROOM_4_33BABDA2,hourly; !- [J]
Output:Meter,Heating:EnergyTransfer:Zone:RESTROOM_4_33BABDA2,hourly; !- [J]
Output:Meter:Cumulative,Heating:EnergyTransfer:Zone:RESTROOM_4_33BABDA2,hourly; !- [J]
Output:Meter,General:Heating:EnergyTransfer:Zone:RESTROOM_4_33BABDA2,hourly; !- [J]
Output:Meter:Cumulative,General:Heating:EnergyTransfer:Zone:RESTROOM_4_33BABDA2,hourly; !- [J]
Output:Meter,Cooling:EnergyTransfer:Zone:RESTROOM_4_33BABDA2,hourly; !- [J]
Output:Meter:Cumulative,Cooling:EnergyTransfer:Zone:RESTROOM_4_33BABDA2,hourly; !- [J]
Output:Meter,General:Cooling:EnergyTransfer:Zone:RESTROOM_4_33BABDA2,hourly; !- [J]
Output:Meter:Cumulative,General:Cooling:EnergyTransfer:Zone:RESTROOM_4_33BABDA2,hourly; !- [J]
Output:Meter,EnergyTransfer:Zone:RESTROOM_5_911A78E2,hourly; !- [J]
Output:Meter:Cumulative,EnergyTransfer:Zone:RESTROOM_5_911A78E2,hourly; !- [J]
Output:Meter,Heating:EnergyTransfer:Zone:RESTROOM_5_911A78E2,hourly; !- [J]
Output:Meter:Cumulative,Heating:EnergyTransfer:Zone:RESTROOM_5_911A78E2,hourly; !- [J]
Output:Meter,General:Heating:EnergyTransfer:Zone:RESTROOM_5_911A78E2,hourly; !- [J]
Output:Meter:Cumulative,General:Heating:EnergyTransfer:Zone:RESTROOM_5_911A78E2,hourly; !- [J]
Output:Meter,Cooling:EnergyTransfer:Zone:RESTROOM_5_911A78E2,hourly; !- [J]
Output:Meter:Cumulative,Cooling:EnergyTransfer:Zone:RESTROOM_5_911A78E2,hourly; !- [J]
Output:Meter,General:Cooling:EnergyTransfer:Zone:RESTROOM_5_911A78E2,hourly; !- [J]
Output:Meter:Cumulative,General:Cooling:EnergyTransfer:Zone:RESTROOM_5_911A78E2,hourly; !- [J]
Output:Meter,EnergyTransfer:Zone:RESTROOM_6_A019D741,hourly; !- [J]
Output:Meter:Cumulative,EnergyTransfer:Zone:RESTROOM_6_A019D741,hourly; !- [J]
Output:Meter,Heating:EnergyTransfer:Zone:RESTROOM_6_A019D741,hourly; !- [J]
Output:Meter:Cumulative,Heating:EnergyTransfer:Zone:RESTROOM_6_A019D741,hourly; !- [J]
Output:Meter,General:Heating:EnergyTransfer:Zone:RESTROOM_6_A019D741,hourly; !- [J]
Output:Meter:Cumulative,General:Heating:EnergyTransfer:Zone:RESTROOM_6_A019D741,hourly; !- [J]
Output:Meter,Cooling:EnergyTransfer:Zone:RESTROOM_6_A019D741,hourly; !- [J]
Output:Meter:Cumulative,Cooling:EnergyTransfer:Zone:RESTROOM_6_A019D741,hourly; !- [J]
Output:Meter,General:Cooling:EnergyTransfer:Zone:RESTROOM_6_A019D741,hourly; !- [J]
Output:Meter:Cumulative,General:Cooling:EnergyTransfer:Zone:RESTROOM_6_A019D741,hourly; !- [J]
Output:Meter,EnergyTransfer:Zone:ROOM_13_B04291D5,hourly; !- [J]
Output:Meter:Cumulative,EnergyTransfer:Zone:ROOM_13_B04291D5,hourly; !- [J]
Output:Meter,Heating:EnergyTransfer:Zone:ROOM_13_B04291D5,hourly; !- [J]
Output:Meter:Cumulative,Heating:EnergyTransfer:Zone:ROOM_13_B04291D5,hourly; !- [J]
Output:Meter,General:Heating:EnergyTransfer:Zone:ROOM_13_B04291D5,hourly; !- [J]
Output:Meter:Cumulative,General:Heating:EnergyTransfer:Zone:ROOM_13_B04291D5,hourly; !- [J]
Output:Meter,Cooling:EnergyTransfer:Zone:ROOM_13_B04291D5,hourly; !- [J]
Output:Meter:Cumulative,Cooling:EnergyTransfer:Zone:ROOM_13_B04291D5,hourly; !- [J]
Output:Meter,General:Cooling:EnergyTransfer:Zone:ROOM_13_B04291D5,hourly; !- [J]
Output:Meter:Cumulative,General:Cooling:EnergyTransfer:Zone:ROOM_13_B04291D5,hourly; !- [J]
Output:Meter,EnergyTransfer:Zone:SE_HALL_PIANO,hourly; !- [J]
Output:Meter:Cumulative,EnergyTransfer:Zone:SE_HALL_PIANO,hourly; !- [J]
Output:Meter,Heating:EnergyTransfer:Zone:SE_HALL_PIANO,hourly; !- [J]
Output:Meter:Cumulative,Heating:EnergyTransfer:Zone:SE_HALL_PIANO,hourly; !- [J]
Output:Meter,General:Heating:EnergyTransfer:Zone:SE_HALL_PIANO,hourly; !- [J]
Output:Meter:Cumulative,General:Heating:EnergyTransfer:Zone:SE_HALL_PIANO,hourly; !- [J]
Output:Meter,Cooling:EnergyTransfer:Zone:SE_HALL_PIANO,hourly; !- [J]
Output:Meter:Cumulative,Cooling:EnergyTransfer:Zone:SE_HALL_PIANO,hourly; !- [J]
Output:Meter,General:Cooling:EnergyTransfer:Zone:SE_HALL_PIANO,hourly; !- [J]
Output:Meter:Cumulative,General:Cooling:EnergyTransfer:Zone:SE_HALL_PIANO,hourly; !- [J]
Output:Meter,EnergyTransfer:Zone:SMALL_WEST_CORRIDOR,hourly; !- [J]
Output:Meter:Cumulative,EnergyTransfer:Zone:SMALL_WEST_CORRIDOR,hourly; !- [J]
Output:Meter,Heating:EnergyTransfer:Zone:SMALL_WEST_CORRIDOR,hourly; !- [J]
Output:Meter:Cumulative,Heating:EnergyTransfer:Zone:SMALL_WEST_CORRIDOR,hourly; !- [J]
Output:Meter,General:Heating:EnergyTransfer:Zone:SMALL_WEST_CORRIDOR,hourly; !- [J]
Output:Meter:Cumulative,General:Heating:EnergyTransfer:Zone:SMALL_WEST_CORRIDOR,hourly; !- [J]
Output:Meter,Cooling:EnergyTransfer:Zone:SMALL_WEST_CORRIDOR,hourly; !- [J]
Output:Meter:Cumulative,Cooling:EnergyTransfer:Zone:SMALL_WEST_CORRIDOR,hourly; !- [J]
Output:Meter,General:Cooling:EnergyTransfer:Zone:SMALL_WEST_CORRIDOR,hourly; !- [J]
Output:Meter:Cumulative,General:Cooling:EnergyTransfer:Zone:SMALL_WEST_CORRIDOR,hourly; !- [J]
Output:Meter,EnergyTransfer:Zone:SOUTH_HALL,hourly; !- [J]
Output:Meter:Cumulative,EnergyTransfer:Zone:SOUTH_HALL,hourly; !- [J]
Output:Meter,Heating:EnergyTransfer:Zone:SOUTH_HALL,hourly; !- [J]
Output:Meter:Cumulative,Heating:EnergyTransfer:Zone:SOUTH_HALL,hourly; !- [J]
Output:Meter,General:Heating:EnergyTransfer:Zone:SOUTH_HALL,hourly; !- [J]
Output:Meter:Cumulative,General:Heating:EnergyTransfer:Zone:SOUTH_HALL,hourly; !- [J]
Output:Meter,Cooling:EnergyTransfer:Zone:SOUTH_HALL,hourly; !- [J]
Output:Meter:Cumulative,Cooling:EnergyTransfer:Zone:SOUTH_HALL,hourly; !- [J]
Output:Meter,General:Cooling:EnergyTransfer:Zone:SOUTH_HALL,hourly; !- [J]
Output:Meter:Cumulative,General:Cooling:EnergyTransfer:Zone:SOUTH_HALL,hourly; !- [J]
Output:Meter,EnergyTransfer:Zone:STAIR_1_1681051F,hourly; !- [J]
Output:Meter:Cumulative,EnergyTransfer:Zone:STAIR_1_1681051F,hourly; !- [J]
Output:Meter,Heating:EnergyTransfer:Zone:STAIR_1_1681051F,hourly; !- [J]
Output:Meter:Cumulative,Heating:EnergyTransfer:Zone:STAIR_1_1681051F,hourly; !- [J]
Output:Meter,General:Heating:EnergyTransfer:Zone:STAIR_1_1681051F,hourly; !- [J]
Output:Meter:Cumulative,General:Heating:EnergyTransfer:Zone:STAIR_1_1681051F,hourly; !- [J]
Output:Meter,Cooling:EnergyTransfer:Zone:STAIR_1_1681051F,hourly; !- [J]
Output:Meter:Cumulative,Cooling:EnergyTransfer:Zone:STAIR_1_1681051F,hourly; !- [J]
Output:Meter,General:Cooling:EnergyTransfer:Zone:STAIR_1_1681051F,hourly; !- [J]
Output:Meter:Cumulative,General:Cooling:EnergyTransfer:Zone:STAIR_1_1681051F,hourly; !- [J]
Output:Meter,EnergyTransfer:Zone:STAIR_2_976E6FD5,hourly; !- [J]
Output:Meter:Cumulative,EnergyTransfer:Zone:STAIR_2_976E6FD5,hourly; !- [J]
Output:Meter,Heating:EnergyTransfer:Zone:STAIR_2_976E6FD5,hourly; !- [J]
Output:Meter:Cumulative,Heating:EnergyTransfer:Zone:STAIR_2_976E6FD5,hourly; !- [J]
Output:Meter,General:Heating:EnergyTransfer:Zone:STAIR_2_976E6FD5,hourly; !- [J]
Output:Meter:Cumulative,General:Heating:EnergyTransfer:Zone:STAIR_2_976E6FD5,hourly; !- [J]
Output:Meter,Cooling:EnergyTransfer:Zone:STAIR_2_976E6FD5,hourly; !- [J]
Output:Meter:Cumulative,Cooling:EnergyTransfer:Zone:STAIR_2_976E6FD5,hourly; !- [J]
Output:Meter,General:Cooling:EnergyTransfer:Zone:STAIR_2_976E6FD5,hourly; !- [J]
Output:Meter:Cumulative,General:Cooling:EnergyTransfer:Zone:STAIR_2_976E6FD5,hourly; !- [J]
Output:Meter,EnergyTransfer:Zone:STAIR_3_8F089848,hourly; !- [J]
Output:Meter:Cumulative,EnergyTransfer:Zone:STAIR_3_8F089848,hourly; !- [J]
Output:Meter,Heating:EnergyTransfer:Zone:STAIR_3_8F089848,hourly; !- [J]
Output:Meter:Cumulative,Heating:EnergyTransfer:Zone:STAIR_3_8F089848,hourly; !- [J]
Output:Meter,General:Heating:EnergyTransfer:Zone:STAIR_3_8F089848,hourly; !- [J]
Output:Meter:Cumulative,General:Heating:EnergyTransfer:Zone:STAIR_3_8F089848,hourly; !- [J]
Output:Meter,Cooling:EnergyTransfer:Zone:STAIR_3_8F089848,hourly; !- [J]
Output:Meter:Cumulative,Cooling:EnergyTransfer:Zone:STAIR_3_8F089848,hourly; !- [J]
Output:Meter,General:Cooling:EnergyTransfer:Zone:STAIR_3_8F089848,hourly; !- [J]
Output:Meter:Cumulative,General:Cooling:EnergyTransfer:Zone:STAIR_3_8F089848,hourly; !- [J]
Output:Meter,EnergyTransfer:Zone:UPSTAIRS_OFFICES,hourly; !- [J]
Output:Meter:Cumulative,EnergyTransfer:Zone:UPSTAIRS_OFFICES,hourly; !- [J]
Output:Meter,Heating:EnergyTransfer:Zone:UPSTAIRS_OFFICES,hourly; !- [J]
Output:Meter:Cumulative,Heating:EnergyTransfer:Zone:UPSTAIRS_OFFICES,hourly; !- [J]
Output:Meter,General:Heating:EnergyTransfer:Zone:UPSTAIRS_OFFICES,hourly; !- [J]
Output:Meter:Cumulative,General:Heating:EnergyTransfer:Zone:UPSTAIRS_OFFICES,hourly; !- [J]
Output:Meter,Cooling:EnergyTransfer:Zone:UPSTAIRS_OFFICES,hourly; !- [J]
Output:Meter:Cumulative,Cooling:EnergyTransfer:Zone:UPSTAIRS_OFFICES,hourly; !- [J]
Output:Meter,General:Cooling:EnergyTransfer:Zone:UPSTAIRS_OFFICES,hourly; !- [J]
Output:Meter:Cumulative,General:Cooling:EnergyTransfer:Zone:UPSTAIRS_OFFICES,hourly; !- [J]
Output:Meter,EnergyTransfer:Zone:WEST_CORRIDOR,hourly; !- [J]
Output:Meter:Cumulative,EnergyTransfer:Zone:WEST_CORRIDOR,hourly; !- [J]
Output:Meter,Heating:EnergyTransfer:Zone:WEST_CORRIDOR,hourly; !- [J]
Output:Meter:Cumulative,Heating:EnergyTransfer:Zone:WEST_CORRIDOR,hourly; !- [J]
Output:Meter,General:Heating:EnergyTransfer:Zone:WEST_CORRIDOR,hourly; !- [J]
Output:Meter:Cumulative,General:Heating:EnergyTransfer:Zone:WEST_CORRIDOR,hourly; !- [J]
Output:Meter,Cooling:EnergyTransfer:Zone:WEST_CORRIDOR,hourly; !- [J]
Output:Meter:Cumulative,Cooling:EnergyTransfer:Zone:WEST_CORRIDOR,hourly; !- [J]
Output:Meter,General:Cooling:EnergyTransfer:Zone:WEST_CORRIDOR,hourly; !- [J]
Output:Meter:Cumulative,General:Cooling:EnergyTransfer:Zone:WEST_CORRIDOR,hourly; !- [J]
Output:Meter,EnergyTransfer:Zone:WEST_OFFICE_BLOCK,hourly; !- [J]
Output:Meter:Cumulative,EnergyTransfer:Zone:WEST_OFFICE_BLOCK,hourly; !- [J]
Output:Meter,Heating:EnergyTransfer:Zone:WEST_OFFICE_BLOCK,hourly; !- [J]
Output:Meter:Cumulative,Heating:EnergyTransfer:Zone:WEST_OFFICE_BLOCK,hourly; !- [J]
Output:Meter,General:Heating:EnergyTransfer:Zone:WEST_OFFICE_BLOCK,hourly; !- [J]
Output:Meter:Cumulative,General:Heating:EnergyTransfer:Zone:WEST_OFFICE_BLOCK,hourly; !- [J]
Output:Meter,Cooling:EnergyTransfer:Zone:WEST_OFFICE_BLOCK,hourly; !- [J]
Output:Meter:Cumulative,Cooling:EnergyTransfer:Zone:WEST_OFFICE_BLOCK,hourly; !- [J]
Output:Meter,General:Cooling:EnergyTransfer:Zone:WEST_OFFICE_BLOCK,hourly; !- [J]
Output:Meter:Cumulative,General:Cooling:EnergyTransfer:Zone:WEST_OFFICE_BLOCK,hourly; !- [J]
Output:Meter,DistrictCooling:Facility,hourly; !- [J]
Output:Meter:Cumulative,DistrictCooling:Facility,hourly; !- [J]
Output:Meter,DistrictCooling:Plant,hourly; !- [J]
Output:Meter:Cumulative,DistrictCooling:Plant,hourly; !- [J]
Output:Meter,Cooling:DistrictCooling,hourly; !- [J]
Output:Meter:Cumulative,Cooling:DistrictCooling,hourly; !- [J]
Output:Meter,General:Cooling:DistrictCooling,hourly; !- [J]
Output:Meter:Cumulative,General:Cooling:DistrictCooling,hourly; !- [J]
Output:Meter,DistrictHeating:Facility,hourly; !- [J]
Output:Meter:Cumulative,DistrictHeating:Facility,hourly; !- [J]
Output:Meter,DistrictHeating:Plant,hourly; !- [J]
Output:Meter:Cumulative,DistrictHeating:Plant,hourly; !- [J]
Output:Meter,Heating:DistrictHeating,hourly; !- [J]
Output:Meter:Cumulative,Heating:DistrictHeating,hourly; !- [J]
Output:Meter,General:Heating:DistrictHeating,hourly; !- [J]
Output:Meter:Cumulative,General:Heating:DistrictHeating,hourly; !- [J]
Output:Meter,PlantLoopHeatingDemand:Facility,hourly; !- [J]
Output:Meter:Cumulative,PlantLoopHeatingDemand:Facility,hourly; !- [J]
Output:Meter,PlantLoopHeatingDemand:Plant,hourly; !- [J]
Output:Meter:Cumulative,PlantLoopHeatingDemand:Plant,hourly; !- [J]
Output:Meter,WaterSystems:PlantLoopHeatingDemand,hourly; !- [J]
Output:Meter:Cumulative,WaterSystems:PlantLoopHeatingDemand,hourly; !- [J]
Output:Meter,General:WaterSystems:PlantLoopHeatingDemand,hourly; !- [J]
Output:Meter:Cumulative,General:WaterSystems:PlantLoopHeatingDemand,hourly; !- [J]
Output:Meter,ElectricityPurchased:Facility,hourly; !- [J]
Output:Meter:Cumulative,ElectricityPurchased:Facility,hourly; !- [J]
Output:Meter,ElectricityPurchased:Plant,hourly; !- [J]
Output:Meter:Cumulative,ElectricityPurchased:Plant,hourly; !- [J]
Output:Meter,Cogeneration:ElectricityPurchased,hourly; !- [J]
Output:Meter:Cumulative,Cogeneration:ElectricityPurchased,hourly; !- [J]
Output:Meter,General:Cogeneration:ElectricityPurchased,hourly; !- [J]
Output:Meter:Cumulative,General:Cogeneration:ElectricityPurchased,hourly; !- [J]
Output:Meter,ElectricitySurplusSold:Facility,hourly; !- [J]
Output:Meter:Cumulative,ElectricitySurplusSold:Facility,hourly; !- [J]
Output:Meter,ElectricitySurplusSold:Plant,hourly; !- [J]
Output:Meter:Cumulative,ElectricitySurplusSold:Plant,hourly; !- [J]
Output:Meter,Cogeneration:ElectricitySurplusSold,hourly; !- [J]
Output:Meter:Cumulative,Cogeneration:ElectricitySurplusSold,hourly; !- [J]
Output:Meter,General:Cogeneration:ElectricitySurplusSold,hourly; !- [J]
Output:Meter:Cumulative,General:Cogeneration:ElectricitySurplusSold,hourly; !- [J]
Output:Meter,ElectricityNet:Facility,hourly; !- [J]
Output:Meter:Cumulative,ElectricityNet:Facility,hourly; !- [J]
Output:Meter,ElectricityNet:Plant,hourly; !- [J]
Output:Meter:Cumulative,ElectricityNet:Plant,hourly; !- [J]
Output:Meter,Cogeneration:ElectricityNet,hourly; !- [J]
Output:Meter:Cumulative,Cogeneration:ElectricityNet,hourly; !- [J]
Output:Meter,General:Cogeneration:ElectricityNet,hourly; !- [J]
Output:Meter:Cumulative,General:Cogeneration:ElectricityNet,hourly; !- [J]
Output:Meter,EnergyTransfer:HVAC,hourly; !- [J]
Output:Meter:Cumulative,EnergyTransfer:HVAC,hourly; !- [J]
Output:Meter,HeatingCoils:EnergyTransfer,hourly; !- [J]
Output:Meter:Cumulative,HeatingCoils:EnergyTransfer,hourly; !- [J]
Output:Meter,PlantLoopHeatingDemand:HVAC,hourly; !- [J]
Output:Meter:Cumulative,PlantLoopHeatingDemand:HVAC,hourly; !- [J]
Output:Meter,HeatingCoils:PlantLoopHeatingDemand,hourly; !- [J]
Output:Meter:Cumulative,HeatingCoils:PlantLoopHeatingDemand,hourly; !- [J]
Output:Meter,CoolingCoils:EnergyTransfer,hourly; !- [J]
Output:Meter:Cumulative,CoolingCoils:EnergyTransfer,hourly; !- [J]
Output:Meter,PlantLoopCoolingDemand:Facility,hourly; !- [J]
Output:Meter:Cumulative,PlantLoopCoolingDemand:Facility,hourly; !- [J]
Output:Meter,PlantLoopCoolingDemand:HVAC,hourly; !- [J]
Output:Meter:Cumulative,PlantLoopCoolingDemand:HVAC,hourly; !- [J]
Output:Meter,CoolingCoils:PlantLoopCoolingDemand,hourly; !- [J]
Output:Meter:Cumulative,CoolingCoils:PlantLoopCoolingDemand,hourly; !- [J]
Output:Meter,Electricity:HVAC,hourly; !- [J]
Output:Meter:Cumulative,Electricity:HVAC,hourly; !- [J]
Output:Meter,Fans:Electricity,hourly; !- [J]
Output:Meter:Cumulative,Fans:Electricity,hourly; !- [J]
Output:Meter,VAV System Fans:Fans:Electricity,hourly; !- [J]
Output:Meter:Cumulative,VAV System Fans:Fans:Electricity,hourly; !- [J]
Output:Meter,Water:Facility,hourly; !- [m3]
Output:Meter:Cumulative,Water:Facility,hourly; !- [m3]
Output:Meter,Water:Plant,hourly; !- [m3]
Output:Meter:Cumulative,Water:Plant,hourly; !- [m3]
Output:Meter,WaterSystems:Water,hourly; !- [m3]
Output:Meter:Cumulative,WaterSystems:Water,hourly; !- [m3]
Output:Meter,General:WaterSystems:Water,hourly; !- [m3]
Output:Meter:Cumulative,General:WaterSystems:Water,hourly; !- [m3]
Output:Meter,MainsWater:Facility,hourly; !- [m3]
Output:Meter:Cumulative,MainsWater:Facility,hourly; !- [m3]
Output:Meter,MainsWater:Plant,hourly; !- [m3]
Output:Meter:Cumulative,MainsWater:Plant,hourly; !- [m3]
Output:Meter,WaterSystems:MainsWater,hourly; !- [m3]
Output:Meter:Cumulative,WaterSystems:MainsWater,hourly; !- [m3]
Output:Meter,General:WaterSystems:MainsWater,hourly; !- [m3]
Output:Meter:Cumulative,General:WaterSystems:MainsWater,hourly; !- [m3]
Output:Meter,EnergyTransfer:Plant,hourly; !- [J]
Output:Meter:Cumulative,EnergyTransfer:Plant,hourly; !- [J]
Output:Meter,WaterSystems:EnergyTransfer,hourly; !- [J]
Output:Meter:Cumulative,WaterSystems:EnergyTransfer,hourly; !- [J]
Output:Meter,General:WaterSystems:EnergyTransfer,hourly; !- [J]
Output:Meter:Cumulative,General:WaterSystems:EnergyTransfer,hourly; !- [J]
Output:Meter,WaterSystems:DistrictHeating,hourly; !- [J]
Output:Meter:Cumulative,WaterSystems:DistrictHeating,hourly; !- [J]
Output:Meter,General:WaterSystems:DistrictHeating,hourly; !- [J]
Output:Meter:Cumulative,General:WaterSystems:DistrictHeating,hourly; !- [J]
Output:Meter,Electricity:Plant,hourly; !- [J]
Output:Meter:Cumulative,Electricity:Plant,hourly; !- [J]
Output:Meter,Pumps:Electricity,hourly; !- [J]
Output:Meter:Cumulative,Pumps:Electricity,hourly; !- [J]
Output:Meter,General:Pumps:Electricity,hourly; !- [J]
Output:Meter:Cumulative,General:Pumps:Electricity,hourly; !- [J]
Output:Meter,Water Systems:Pumps:Electricity,hourly; !- [J]
Output:Meter:Cumulative,Water Systems:Pumps:Electricity,hourly; !- [J]
Output:Meter,Carbon Equivalent:Facility,hourly; !- [kg]
Output:Meter:Cumulative,Carbon Equivalent:Facility,hourly; !- [kg]
Output:Meter,CarbonEquivalentEmissions:Carbon Equivalent,hourly; !- [kg]
Output:Meter:Cumulative,CarbonEquivalentEmissions:Carbon Equivalent,hourly; !- [kg]
